1

   Abaqus 6.13-1                                  Date 05-Feb-2016   Time 14:33:24
   For use at  under license from Dassault Systemes or its subsidiary.



                         The Abaqus Software is a product of:

                           Dassault Systemes Simulia Corp.
                                 Rising Sun Mills
                                 166 Valley Street
                           Providence, RI 02909-2499, USA
 


                   Available for internal use at . 
                   The Abaqus Online Support System is accessible
                   through the "My Support" section of the SIMULIA
                   Home Page at http://www.simulia.com.

                   Support policies for academic licenses are described
                   on the SIMULIA web site at
                   http://www.3ds.com/products/simulia/academics/
 
                          On machine luigi 
                          you are authorized to run
                          Abaqus/Foundation until 30-Aug-2016

                          Your site id is: 200000000026328 


 
                    For assistance or any other information you may
                    obtain contact information for your local office
                    from the world wide web at:

                      http://www.3ds.com/products/simulia/locations/

 
                * * * * * * * * * * * * * * * * * * * * * * * * * * * * * * 
                *                                                         * 
                *                   *****************                     * 
                *                   *  N O T I C E  *                     * 
                *                   *****************                     * 
                *                                                         * 
                *                                                         * 
                *                    Abaqus 6.13-1                        * 
                *                                                         * 
                *          BUILD ID: 2013_05_15-22.28.56 126354           * 
                *                                                         * 
                *                                                         * 
                *  Please make sure you are using release 6.13 manuals    * 
                *  plus the notes accompanying this release.              * 
                *                                                         * 
                *                                                         * 
                *                                                         * 
                *                                                         * 
                *                                                         * 
                *   This program may not be used for commercial purposes  * 
                *           without payment of a commercial fee.          * 
                *                                                         * 
                * * * * * * * * * * * * * * * * * * * * * * * * * * * * * * 


 



     PROCESSING PART, INSTANCE, AND ASSEMBLY INFORMATION
   *******************************************************


     END PROCESSING PART, INSTANCE, AND ASSEMBLY INFORMATION
   ***********************************************************




     OPTIONS BEING PROCESSED
   ***************************


  *Heading
  *Node
  *Element, type=B23
  *Elset, elset=ASSEMBLY_PART-1-1_ALL
  *Nset, nset=ASSEMBLY_ALL
  *Nset, nset=ASSEMBLY_N2
  *Nset, nset=ASSEMBLY_SUPP
  *beamgeneralsection, elset=ASSEMBLY_PART-1-1_ALL, density=0.0001, section=GENERAL
  *boundary
  *boundary
  *beamgeneralsection, elset=ASSEMBLY_PART-1-1_ALL, density=0.0001, section=GENERAL
  *output, field, variable=PRESELECT
  *output, field, variable=PRESELECT
  *output, field, variable=PRESELECT
  *Step, name=Step-1, nlgeom=NO, perturbation
  *frequency, eigensolver=LANCZOS, normalization=DISPLACEMENT, acousticcoupling=ON
  *output, field, variable=PRESELECT
  *Step, name=Step-1, nlgeom=NO, perturbation
  *Step, name=Step-1, nlgeom=NO, perturbation
  *frequency, eigensolver=LANCZOS, normalization=DISPLACEMENT, acousticcoupling=ON
  *frequency, eigensolver=LANCZOS, normalization=DISPLACEMENT, acousticcoupling=ON
  *output, field, variable=PRESELECT
  *endstep
  *boundary
  *boundary
  *Step, name=Step-1, nlgeom=NO, perturbation
  *frequency, eigensolver=LANCZOS, normalization=DISPLACEMENT, acousticcoupling=ON
  *frequency, eigensolver=LANCZOS, normalization=DISPLACEMENT, acousticcoupling=ON
  *endstep



                            P R O B L E M   S I Z E


          NUMBER OF ELEMENTS IS                                    20
          NUMBER OF NODES IS                                       41
          NUMBER OF NODES DEFINED BY THE USER                      21
          NUMBER OF INTERNAL NODES GENERATED BY THE PROGRAM        20
          TOTAL NUMBER OF VARIABLES IN THE MODEL                  103
          (DEGREES OF FREEDOM PLUS MAX NO. OF ANY LAGRANGE MULTIPLIER
           VARIABLES. INCLUDE *PRINT,SOLVE=YES TO GET THE ACTUAL NUMBER.)



                              END OF USER INPUT PROCESSING



     JOB TIME SUMMARY
       USER TIME (SEC)      =  0.10000    
       SYSTEM TIME (SEC)    =  0.10000    
       TOTAL CPU TIME (SEC) =  0.20000    
       WALLCLOCK TIME (SEC) =          0
1

   Abaqus 6.13-1                                  Date 05-Feb-2016   Time 14:33:35
   For use at  under license from Dassault Systemes or its subsidiary.

                                                                                               STEP    1  INCREMENT    1
                                                                                          TIME COMPLETED IN THIS STEP   0.00    


                        S T E P       1     C A L C U L A T I O N   O F   E I G E N V A L U E S

                                            F O R   N A T U R A L   F R E Q U E N C I E S



                                                                                          

     THE LANCZOS EIGENSOLVER IS USED FOR THIS ANALYSIS
     Abaqus WILL COMPUTE UNCOUPLED
      STRUCTURAL AND ACOUSTIC MODES
     NUMBER OF EIGENVALUES                     20
     HIGHEST FREQUENCY OF INTEREST                  1.00000E+18
     MAXIMUM NUMBER OF STEPS WITHIN RUN               35
     BLOCK SIZE FOR LANCZOS PROCEDURE                  7
     THE EIGENVECTORS ARE SCALED SO THAT 
      THE LARGEST DISPLACEMENT ENTRY IN EACH VECTOR
      IS UNITY

     THIS IS A LINEAR PERTURBATION STEP.
     ALL LOADS ARE DEFINED AS CHANGE IN LOAD TO THE REFERENCE STATE



                    TOTAL MASS OF MODEL

                       5.000000    


                    LOCATION OF THE CENTER OF MASS OF THE MODEL

                       2.500000           0.000000    


                    MOMENT OF INERTIA ABOUT THE ORIGIN
                           I(ZZ)

                       41.66667    


                    PRODUCT OF INERTIA ABOUT THE ORIGIN
                           I(XY)

                       0.000000    


                    MOMENT OF INERTIA ABOUT THE CENTER OF MASS
                           I(ZZ)

                       10.41667    


                    PRODUCT OF INERTIA ABOUT THE CENTER OF MASS
                           I(XY)

                       0.000000    
  
                   M E M O R Y   E S T I M A T E
  
 PROCESS      FLOATING PT       MINIMUM MEMORY        MEMORY TO
              OPERATIONS           REQUIRED          MINIMIZE I/O
             PER ITERATION         (MBYTES)           (MBYTES)
  
     1         5.10E+003               16                 25
  
 NOTE:
      (1) SINCE ABAQUS DOES NOT PRE-ALLOCATE MEMORY AND ONLY ALLOCATES MEMORY AS NEEDED DURING THE ANALYSIS,
          THE MEMORY REQUIREMENT PRINTED HERE CAN ONLY BE VIEWED AS A GENERAL GUIDELINE BASED ON THE BEST
          KNOWLEDGE AVAILABLE AT THE BEGINNING OF A STEP BEFORE THE SOLUTION PROCESS HAS BEGUN.
      (2) THE ESTIMATE IS NORMALLY UPDATED AT THE BEGINNING OF EVERY STEP. IT IS THE MAXIMUM VALUE OF THE
          ESTIMATE FROM THE CURRENT STEP TO THE LAST STEP OF THE ANALYSIS, WITH UNSYMMETRIC SOLUTION TAKEN
          INTO ACCOUNT IF APPLICABLE. 
      (3) SINCE THE ESTIMATE IS BASED ON THE ACTIVE DEGREES OF FREEDOM IN THE FIRST ITERATION OF THE 
          CURRENT STEP, THE MEMORY ESTIMATE MIGHT BE SIGNIFICANTLY DIFFERENT THAN ACTUAL USAGE FOR 
          PROBLEMS WITH SUBSTANTIAL CHANGES IN ACTIVE DEGREES OF FREEDOM BETWEEN STEPS (OR EVEN WITHIN
          THE SAME STEP). EXAMPLES ARE: PROBLEMS WITH SIGNIFICANT CONTACT CHANGES, PROBLEMS WITH MODEL
          CHANGE, PROBLEMS WITH BOTH STATIC STEP AND STEADY STATE DYNAMIC PROCEDURES WHERE ACOUSTIC 
          ELEMENTS WILL ONLY BE ACTIVATED IN THE STEADY STATE DYNAMIC STEPS.
      (4) FOR MULTI-PROCESS EXECUTION, THE ESTIMATED VALUE OF FLOATING POINT OPERATIONS FOR EACH PROCESS
          IS BASED ON AN INITIAL SCHEDULING OF OPERATIONS AND MIGHT NOT REFLECT THE ACTUAL FLOATING 
          POINT OPERATIONS COMPLETED ON EACH PROCESS. OPERATIONS ARE DYNAMICALLY BALANCED DURING EXECUTION, 
          SO THE ACTUAL BALANCE OF OPERATIONS BETWEEN PROCESSES IS EXPECTED TO BE BETTER THAN THE ESTIMATE
          PRINTED HERE.
      (5) THE UPPER LIMIT OF MEMORY THAT CAN BE ALLOCATED BY ABAQUS WILL IN GENERAL DEPEND ON THE VALUE OF
          THE "MEMORY" PARAMETER AND THE AMOUNT OF PHYSICAL MEMORY AVAILABLE ON THE MACHINE. PLEASE SEE
          THE "ABAQUS ANALYSIS USER'S MANUAL" FOR MORE DETAILS. THE ACTUAL USAGE OF MEMORY AND OF DISK
          SPACE FOR SCRATCH DATA WILL DEPEND ON THIS UPPER LIMIT AS WELL AS THE MEMORY REQUIRED TO MINIMIZE
          I/O. IF THE MEMORY UPPER LIMIT IS GREATER THAN THE MEMORY REQUIRED TO MINIMIZE I/O, THEN THE ACTUAL
          MEMORY USAGE WILL BE CLOSE TO THE ESTIMATED "MEMORY TO MINIMIZE I/O" VALUE, AND THE SCRATCH DISK
          USAGE WILL BE CLOSE-TO-ZERO; OTHERWISE, THE ACTUAL MEMORY USED WILL BE CLOSE TO THE PREVIOUSLY
          MENTIONED MEMORY LIMIT, AND THE SCRATCH DISK USAGE WILL BE ROUGHLY PROPORTIONAL TO THE DIFFERENCE
          BETWEEN THE ESTIMATED "MEMORY TO MINIMIZE I/O" AND THE MEMORY UPPER LIMIT. HOWEVER ACCURATE
          ESTIMATE OF THE SCRATCH DISK SPACE IS NOT POSSIBLE.
      (6) USING "*RESTART, WRITE" CAN GENERATE A LARGE AMOUNT OF DATA WRITTEN IN THE WORK DIRECTORY.


                              E I G E N V A L U E    O U T P U T     

 MODE NO      EIGENVALUE              FREQUENCY         GENERALIZED MASS   COMPOSITE MODAL DAMPING            
                             (RAD/TIME)   (CYCLES/TIME)


       1       97.460         9.8722         1.5712         2.4974         0.0000    
       2       119.98         10.953         1.7433         1.3732         0.0000    
       3       187.68         13.700         2.1804         1.2175         0.0000    
       4       297.93         17.261         2.7471         1.2838         0.0000    
       5       429.75         20.730         3.2994         1.0606         0.0000    
       6       1571.1         39.637         6.3084         2.4605         0.0000    
       7       1757.2         41.918         6.6715         1.3748         0.0000    
       8       2224.9         47.169         7.5072         1.3141         0.0000    
       9       2863.3         53.510         8.5164         1.3911         0.0000    
      10       3535.6         59.461         9.4634         1.2161         0.0000    
      11       8192.7         90.513         14.406         2.3084         0.0000    
      12       8844.6         94.046         14.968         1.3666         0.0000    
      13       10420.         102.08         16.246         1.3231         0.0000    
      14       12443.         111.55         17.753         1.4469         0.0000    
      15       14419.         120.08         19.111         1.2111         0.0000    
      16       30720.         175.27         27.895        1.04167E-02     0.0000    
      17       32556.         180.43         28.717         17.204         0.0000    
      18       37238.         192.97         30.713         6.9291         0.0000    
      19       43707.         209.06         33.273         5.1885         0.0000    
      20       50952.         225.73         35.925         4.9042         0.0000    


          P A R T I C I P A T I O N   F A C T O R S

 MODE NO    X-COMPONENT    Y-COMPONENT    Z-COMPONENT    X-ROTATION     Y-ROTATION     Z-ROTATION 

       1      3.08950E-17    0.25478         0.0000         0.0000         0.0000        0.63694    
       2     -2.75216E-17   -3.38567E-16     0.0000         0.0000         0.0000        -1.2669    
       3     -3.98390E-17   -0.61845         0.0000         0.0000         0.0000        -1.5461    
       4     -1.93441E-16    3.23498E-15     0.0000         0.0000         0.0000        -2.0111    
       5      1.54159E-16     1.6504         0.0000         0.0000         0.0000         4.1261    
       6     -7.07554E-17   -1.24087E-16     0.0000         0.0000         0.0000       -0.32052    
       7     -1.53151E-17    0.18204         0.0000         0.0000         0.0000        0.45509    
       8     -1.04806E-16    6.33627E-17     0.0000         0.0000         0.0000       -0.24475    
       9      6.23259E-17   -3.77007E-02     0.0000         0.0000         0.0000       -9.42518E-02
      10     -7.82025E-17   -4.25077E-16     0.0000         0.0000         0.0000       -1.85265E-02
      11      1.35903E-16    8.70288E-02     0.0000         0.0000         0.0000        0.21757    
      12      7.38727E-16   -6.50952E-15     0.0000         0.0000         0.0000       -0.43146    
      13     -8.11068E-17    0.21741         0.0000         0.0000         0.0000        0.54353    
      14     -6.05440E-17   -5.08339E-16     0.0000         0.0000         0.0000        0.74727    
      15      2.39419E-15   -0.63978         0.0000         0.0000         0.0000        -1.5995    
      16      1.21373E-10    2.87502E-10     0.0000         0.0000         0.0000        -2.5000    
      17     -1.96932E-13    1.54762E-02     0.0000         0.0000         0.0000        3.86905E-02
      18      2.30874E-12    5.48934E-12     0.0000         0.0000         0.0000       -2.60668E-02
      19      5.15161E-11   -3.37025E-04     0.0000         0.0000         0.0000       -8.42563E-04
      20     -5.13085E-11   -1.23140E-10     0.0000         0.0000         0.0000       -1.64351E-02


                    E F F E C T I V E   M A S S

 MODE NO    X-COMPONENT    Y-COMPONENT    Z-COMPONENT    X-ROTATION     Y-ROTATION     Z-ROTATION 

       1      2.38376E-33    0.16211         0.0000         0.0000         0.0000         1.0132    
       2      1.04009E-33    1.57402E-31     0.0000         0.0000         0.0000         2.2040    
       3      1.93236E-33    0.46567         0.0000         0.0000         0.0000         2.9105    
       4      4.80374E-32    1.34346E-29     0.0000         0.0000         0.0000         5.1920    
       5      2.52045E-32     2.8889         0.0000         0.0000         0.0000         18.056    
       6      1.23178E-32    3.78853E-32     0.0000         0.0000         0.0000        0.25276    
       7      3.22455E-34    4.55563E-02     0.0000         0.0000         0.0000        0.28473    
       8      1.44347E-32    5.27600E-33     0.0000         0.0000         0.0000        7.87170E-02
       9      5.40376E-33    1.97723E-03     0.0000         0.0000         0.0000        1.23577E-02
      10      7.43738E-33    2.19742E-31     0.0000         0.0000         0.0000        4.17414E-04
      11      4.26357E-32    1.74839E-02     0.0000         0.0000         0.0000        0.10927    
      12      7.45757E-31    5.79065E-29     0.0000         0.0000         0.0000        0.25440    
      13      8.70361E-33    6.25388E-02     0.0000         0.0000         0.0000        0.39087    
      14      5.30378E-33    3.73895E-31     0.0000         0.0000         0.0000        0.80798    
      15      6.94226E-30    0.49574         0.0000         0.0000         0.0000         3.0984    
      16      1.53452E-22    8.61017E-22     0.0000         0.0000         0.0000        6.51042E-02
      17      6.67210E-25    4.12058E-03     0.0000         0.0000         0.0000        2.57536E-02
      18      3.69339E-23    2.08792E-22     0.0000         0.0000         0.0000        4.70814E-03
      19      1.37698E-20    5.89338E-07     0.0000         0.0000         0.0000        3.68336E-06
      20      1.29106E-20    7.43652E-20     0.0000         0.0000         0.0000        1.32468E-03

 TOTAL        2.68714E-20     4.1441         0.0000         0.0000         0.0000         34.762    


          THE ANALYSIS HAS BEEN COMPLETED



                              ANALYSIS COMPLETE



     JOB TIME SUMMARY
       USER TIME (SEC)      =   0.0000    
       SYSTEM TIME (SEC)    =  0.10000    
       TOTAL CPU TIME (SEC) =  0.10000    
       WALLCLOCK TIME (SEC) =          1
