*Heading
** Job name: shell_freq Model name: Model-1
** Generated by: Abaqus/CAE 6.14-1
*Preprint, echo=NO, model=NO, history=NO, contact=NO
**
** PARTS
**
*Part, name=Part-1
*End Part
**  
**
** ASSEMBLY
**
*Assembly, name=Assembly
**  
*Instance, name=Part-1-1, part=Part-1
*Node
      1,         -10.,   99.4987411,          20.
      2,  -9.00286198,   99.5939178,          20.
      3,  -8.00481987,      99.6791,          20.
      4,  -7.00597525,   99.7542801,          20.
      5,  -6.00642776,   99.8194504,          20.
      6,  -5.00627756,   99.8746109,          20.
      7,  -4.00562477,   99.9197464,          20.
      8,  -3.00457048,   99.9548492,          20.
      9,  -2.00321436,   99.9799347,          20.
     10,  -1.00165749,   99.9949799,          20.
     11,           0.,         100.,          20.
     12,   1.00165749,   99.9949799,          20.
     13,   2.00321436,   99.9799347,          20.
     14,   3.00457048,   99.9548492,          20.
     15,   4.00562477,   99.9197464,          20.
     16,   5.00627756,   99.8746109,          20.
     17,   6.00642776,   99.8194504,          20.
     18,   7.00597525,   99.7542801,          20.
     19,   8.00481987,      99.6791,          20.
     20,   9.00286198,   99.5939178,          20.
** ... 421 like lines cut
*Element, type=S4R
  1,   1,   2,  23,  22
  2,   2,   3,  24,  23
  3,   3,   4,  25,  24
  4,   4,   5,  26,  25
  5,   5,   6,  27,  26
  6,   6,   7,  28,  27
  7,   7,   8,  29,  28
  8,   8,   9,  30,  29
  9,   9,  10,  31,  30
 10,  10,  11,  32,  31
 11,  11,  12,  33,  32
 12,  12,  13,  34,  33
 13,  13,  14,  35,  34
 14,  14,  15,  36,  35
 15,  15,  16,  37,  36
 16,  16,  17,  38,  37
 17,  17,  18,  39,  38
 18,  18,  19,  40,  39
 19,  19,  20,  41,  40
 20,  20,  21,  42,  41
** ... 380 like lines cut
*Nset, nset=Set-2, generate
   1,  441,    1
*Elset, elset=Set-2, generate
   1,  400,    1
** Section: Section-1
*Shell Section, elset=Set-2, material=Material-1
0.125, 5
*End Instance
**  
*Nset, nset=Set-4, instance=Part-1-1
   1,   2,   3,   4,   5,   6,   7,   8,   9,  10,  11,  12,  13,  14,  15,  16
  17,  18,  19,  20,  21,  22,  42,  43,  63,  64,  84,  85, 105, 106, 126, 127
 147, 148, 168, 169, 189, 190, 210, 211, 231, 232, 252, 253, 273, 274, 294, 295
 315, 316, 336, 337, 357, 358, 378, 379, 399, 400, 420, 421, 422, 423, 424, 425
 426, 427, 428, 429, 430, 431, 432, 433, 434, 435, 436, 437, 438, 439, 440, 441
*Elset, elset=Set-4, instance=Part-1-1
   1,   2,   3,   4,   5,   6,   7,   8,   9,  10,  11,  12,  13,  14,  15,  16
  17,  18,  19,  20,  21,  40,  41,  60,  61,  80,  81, 100, 101, 120, 121, 140
 141, 160, 161, 180, 181, 200, 201, 220, 221, 240, 241, 260, 261, 280, 281, 300
 301, 320, 321, 340, 341, 360, 361, 380, 381, 382, 383, 384, 385, 386, 387, 388
 389, 390, 391, 392, 393, 394, 395, 396, 397, 398, 399, 400
*Elset, elset=_Surf-2_SPOS, internal, instance=Part-1-1, generate
   1,  400,    1
*Surface, type=ELEMENT, name=Surf-2
_Surf-2_SPOS, SPOS
*Elset, elset=_Surf-3_SPOS, internal, instance=Part-1-1, generate
   1,  400,    1
*Surface, type=ELEMENT, name=Surf-3
_Surf-3_SPOS, SPOS
*End Assembly
** 
** MATERIALS
** 
*Material, name=Material-1
*Density
 0.0966435,
*Elastic
450000., 0.3
** 
** BOUNDARY CONDITIONS
** 
** Name: BC-1 Type: Displacement/Rotation
*Boundary
Set-4, 1, 1
Set-4, 2, 2
Set-4, 3, 3
Set-4, 4, 4
Set-4, 5, 5
Set-4, 6, 6
** ----------------------------------------------------------------
** 
** STEP: Step-1
** 
*Step, name=Step-1, nlgeom=NO, perturbation
*Frequency, eigensolver=Lanczos, acoustic coupling=on, normalization=displacement
5, , , , , 
** 
** OUTPUT REQUESTS
** 
*Restart, write, frequency=0
** 
** FIELD OUTPUT: F-Output-1
** 
*Output, field, variable=PRESELECT
*End Step
** ----------------------------------------------------------------
** 
** STEP: Step-2
** 
*Step, name=Step-2, nlgeom=YES, unsymm=YES
*Static
1., 1., 1e-05, 1.
** 
** LOADS
** 
** Name: Load-1   Type: Pressure
*Dsload
Surf-3, P, 0.1
** 
** OUTPUT REQUESTS
** 
*Restart, write, frequency=0
** 
** FIELD OUTPUT: F-Output-2
** 
*Output, field, variable=PRESELECT
** 
** HISTORY OUTPUT: H-Output-1
** 
*Output, history, variable=PRESELECT
*End Step
** ----------------------------------------------------------------
** 
** STEP: Step-3
** 
*Step, name=Step-3, nlgeom=NO, perturbation
*Frequency, eigensolver=Lanczos, acoustic coupling=on, normalization=displacement
5, , , , , 
** 
** OUTPUT REQUESTS
** 
*Restart, write, frequency=0
** 
** FIELD OUTPUT: F-Output-1
** 
*Output, field, variable=PRESELECT
*End Step
