*Heading
** Job name: CLoad_test Model name: Model-1
** Generated by: Abaqus/CAE 6.14-1
*Preprint, echo=NO, model=NO, history=NO, contact=NO
**
** PARTS
**
*Part, name=Part-1
*End Part
**  
**
** ASSEMBLY
**
*Assembly, name=Assembly
**  
*Instance, name=Part-1-1, part=Part-1
*Node
      1,  0.387499988,          0.5,           0.
      2,  0.287499994,          0.5,           0.
      3,       0.1875,          0.5,           0.
      4, 0.0874999985,          0.5,           0.
      5, -0.0125000002,          0.5,           0.
      6, -0.112499997,          0.5,           0.
      7, -0.212500006,          0.5,           0.
      8,      -0.3125,          0.5,           0.
      9, -0.412499994,          0.5,           0.
     10, -0.512499988,          0.5,           0.
     11, -0.612500012,          0.5,           0.
     12,  0.387499988,  0.400000006,           0.
     13,  0.287499994,  0.400000006,           0.
     14,       0.1875,  0.400000006,           0.
     15, 0.0874999985,  0.400000006,           0.
     16, -0.0125000002,  0.400000006,           0.
     17, -0.112499997,  0.400000006,           0.
     18, -0.212500006,  0.400000006,           0.
     19,      -0.3125,  0.400000006,           0.
     20, -0.412499994,  0.400000006,           0.
** ... 101 like lines cut
*Element, type=S4R
  1,   1,   2,  13,  12
  2,   2,   3,  14,  13
  3,   3,   4,  15,  14
  4,   4,   5,  16,  15
  5,   5,   6,  17,  16
  6,   6,   7,  18,  17
  7,   7,   8,  19,  18
  8,   8,   9,  20,  19
  9,   9,  10,  21,  20
 10,  10,  11,  22,  21
 11,  12,  13,  24,  23
 12,  13,  14,  25,  24
 13,  14,  15,  26,  25
 14,  15,  16,  27,  26
 15,  16,  17,  28,  27
 16,  17,  18,  29,  28
 17,  18,  19,  30,  29
 18,  19,  20,  31,  30
 19,  20,  21,  32,  31
 20,  21,  22,  33,  32
** ... 80 like lines cut
*Nset, nset=_PickedSet2, internal, generate
   1,  121,    1
*Elset, elset=_PickedSet2, internal, generate
   1,  100,    1
** Section: Section-1
*Shell Section, elset=_PickedSet2, material=Material-1
0.005, 5
*End Instance
**  
*Nset, nset=NSET_ALL, instance=Part-1-1, generate
   1,  121,    1
*Nset, nset=NSET_LOAD, instance=Part-1-1
  13,  14,  15,  16,  17,  18,  19,  20,  21,  24,  25,  26,  27,  28,  29,  30
  31,  32,  35,  36,  37,  38,  39,  40,  41,  42,  43,  46,  47,  48,  49,  50
  51,  52,  53,  54,  57,  58,  59,  60,  61,  62,  63,  64,  65,  68,  69,  70
  71,  72,  73,  74,  75,  76,  79,  80,  81,  82,  83,  84,  85,  86,  87,  90
  91,  92,  93,  94,  95,  96,  97,  98, 101, 102, 103, 104, 105, 106, 107, 108
 109,
*Nset, nset=_PickedSet6, internal, instance=Part-1-1
   1,   2,   3,   4,   5,   6,   7,   8,   9,  10,  11,  12,  22,  23,  33,  34
  44,  45,  55,  56,  66,  67,  77,  78,  88,  89,  99, 100, 110, 111, 112, 113
 114, 115, 116, 117, 118, 119, 120, 121
*Elset, elset=_PickedSet6, internal, instance=Part-1-1
   1,   2,   3,   4,   5,   6,   7,   8,   9,  10,  11,  20,  21,  30,  31,  40
  41,  50,  51,  60,  61,  70,  71,  80,  81,  90,  91,  92,  93,  94,  95,  96
  97,  98,  99, 100
*End Assembly
*Psd-definition, name=PSD
6.28, 0., 0.0001
6.28, 0., 1000.
** 
** MATERIALS
** 
*Material, name=Material-1
*Density
2711.,
*Elastic
 6.87e+10, 0.33
** 
** BOUNDARY CONDITIONS
** 
** Name: BC-1 Type: Displacement/Rotation
*Boundary
_PickedSet6, 1, 1
_PickedSet6, 2, 2
_PickedSet6, 3, 3
_PickedSet6, 4, 4
_PickedSet6, 5, 5
_PickedSet6, 6, 6
** ----------------------------------------------------------------
** 
** STEP: Step-1
** 
*Step, name=Step-1, nlgeom=NO, perturbation
*Frequency, eigensolver=Lanczos, acoustic coupling=on, normalization=displacement
20, , , , , 
** 
** OUTPUT REQUESTS
** 
*Restart, write, frequency=0
** 
** FIELD OUTPUT: F-Output-1
** 
*Output, field
*Node Output, nset=NSET_ALL, variable=PRESELECT
*Contact Output, nset=NSET_ALL, variable=PRESELECT
*End Step
** ----------------------------------------------------------------
** 
** STEP: Step-2
** 
*Step, name=Step-2, nlgeom=NO, perturbation
*Random Response
0.1, 500.0, 20, 1., 
*Modal Damping, modal=direct
1, 500, 0.01
*select eigenmodes, generate
1, 500
*cload
NSET_LOAD, 3, -2000
*correlation, type=moving noise
1, 6.0, 0.0, 0.0,PSD
** 
** OUTPUT REQUESTS
** 
** 
** FIELD OUTPUT: F-Output-2
** 
*Output, field, frequency=1
*Node Output, nset=NSET_ALL
A, RU, U, V
*Output, history, frequency=0
*End Step
