 Abaqus/Standard 6.14-1                  DATE 06-Feb-2016 TIME 20:17:41
 SUMMARY OF JOB INFORMATION:
 STEP  INC ATT SEVERE EQUIL TOTAL  TOTAL      STEP       INC OF       DOF    IF
               DISCON ITERS ITERS  TIME/    TIME/LPF    TIME/LPF    MONITOR RIKS
               ITERS               FREQ
   1     1   1     0     0     0  0.000      1.00e-036  1.000e-036
   2     1                        0.100    
   2     2                        0.138    
   2     3                        0.190    
   2     4                        0.262    
   2     5                        0.362    
   2     6                        0.499    
   2     7                        0.689    
   2     8                        0.950    
   2     9                        1.31     
   2    10                        1.81     
   2    11                        2.49     
   2    12                        3.44     
   2    13                        4.74     
   2    14                        6.54     
   2    15                        9.02     
   2    16                        12.4     
   2    17                        17.2     
   2    18                        23.7     
   2    19                        32.6     
   2    20                        45.0     
   2    21                        46.8     
   2    22                        48.7     
   2    23                        50.7     
   2    24                        52.8     
   2    25                        54.9     
   2    26                        57.1     
   2    27                        59.4     
   2    28                        61.9     
   2    29                        64.4     
   2    30                        67.0     
   2    31                        69.7     
   2    32                        72.5     
   2    33                        75.4     
   2    34                        78.5     
   2    35                        81.7     
   2    36                        85.0     
   2    37                        88.4     
   2    38                        92.0     
   2    39                        95.8     
   2    40                        95.8     
   2    41                        95.8     
   2    42                        95.8     
   2    43                        95.8     
   2    44                        97.7     
   2    45                        99.7     
   2    46                        102.     
   2    47                        104.     
   2    48                        106.     
   2    49                        108.     
   2    50                        110.     
   2    51                        112.     
   2    52                        115.     
   2    53                        117.     
   2    54                        119.     
   2    55                        122.     
   2    56                        124.     
   2    57                        127.     
   2    58                        129.     
   2    59                        132.     
   2    60                        135.     
   2    61                        137.     
   2    62                        140.     
   2    63                        142.     
   2    64                        144.     
   2    65                        147.     
   2    66                        149.     
   2    67                        151.     
   2    68                        153.     
   2    69                        156.     
   2    70                        158.     
   2    71                        160.     
   2    72                        163.     
   2    73                        165.     
   2    74                        168.     
   2    75                        170.     
   2    76                        173.     
   2    77                        176.     
   2    78                        178.     
   2    79                        181.     
   2    80                        184.     
   2    81                        186.     
   2    82                        186.     
   2    83                        187.     
   2    84                        187.     
   2    85                        187.     
   2    86                        187.     
   2    87                        187.     
   2    88                        187.     
   2    89                        187.     
   2    90                        187.     
   2    91                        187.     
   2    92                        187.     
   2    93                        187.     
   2    94                        187.     
   2    95                        187.     
   2    96                        187.     
   2    97                        187.     
   2    98                        187.     
   2    99                        187.     
   2   100                        187.     
   2   101                        189.     
   2   102                        191.     
   2   103                        193.     
   2   104                        195.     
   2   105                        197.     
   2   106                        199.     
   2   107                        200.     
   2   108                        202.     
   2   109                        204.     
   2   110                        206.     
   2   111                        208.     
   2   112                        210.     
   2   113                        212.     
   2   114                        214.     
   2   115                        216.     
   2   116                        219.     
   2   117                        221.     
   2   118                        223.     
   2   119                        225.     
   2   120                        225.     
   2   121                        225.     
   2   122                        225.     
   2   123                        225.     
   2   124                        225.     
   2   125                        225.     
   2   126                        225.     
   2   127                        225.     
   2   128                        225.     
   2   129                        225.     
   2   130                        225.     
   2   131                        225.     
   2   132                        225.     
   2   133                        225.     
   2   134                        225.     
   2   135                        225.     
   2   136                        225.     
   2   137                        225.     
   2   138                        225.     
   2   139                        228.     
   2   140                        232.     
   2   141                        235.     
   2   142                        239.     
   2   143                        243.     
   2   144                        246.     
   2   145                        250.     
   2   146                        254.     
   2   147                        258.     
   2   148                        262.     
   2   149                        266.     
   2   150                        270.     
   2   151                        274.     
   2   152                        278.     
   2   153                        282.     
   2   154                        287.     
   2   155                        291.     
   2   156                        295.     
   2   157                        300.     
   2   158                        302.     
   2   159                        304.     
   2   160                        305.     
   2   161                        307.     
   2   162                        309.     
   2   163                        311.     
   2   164                        313.     
   2   165                        315.     
   2   166                        317.     
   2   167                        318.     
   2   168                        320.     
   2   169                        322.     
   2   170                        324.     
   2   171                        326.     
   2   172                        328.     
   2   173                        330.     
   2   174                        332.     
   2   175                        334.     
   2   176                        336.     
   2   177                        336.     
   2   178                        336.     
   2   179                        336.     
   2   180                        336.     
   2   181                        336.     
   2   182                        336.     
   2   183                        336.     
   2   184                        336.     
   2   185                        336.     
   2   186                        336.     
   2   187                        336.     
   2   188                        336.     
   2   189                        336.     
   2   190                        336.     
   2   191                        336.     
   2   192                        336.     
   2   193                        336.     
   2   194                        336.     
   2   195                        336.     
   2   196                        338.     
   2   197                        339.     
   2   198                        341.     
   2   199                        342.     
   2   200                        344.     
   2   201                        345.     
   2   202                        347.     
   2   203                        349.     
   2   204                        350.     
   2   205                        352.     
   2   206                        353.     
   2   207                        355.     
   2   208                        357.     
   2   209                        358.     
   2   210                        360.     
   2   211                        362.     
   2   212                        363.     
   2   213                        365.     
   2   214                        367.     
   2   215                        367.     
   2   216                        367.     
   2   217                        367.     
   2   218                        367.     
   2   219                        367.     
   2   220                        367.     
   2   221                        367.     
   2   222                        368.     
   2   223                        368.     
   2   224                        368.     
   2   225                        368.     
   2   226                        368.     
   2   227                        368.     
   2   228                        368.     
   2   229                        368.     
   2   230                        368.     
   2   231                        369.     
   2   232                        369.     
   2   233                        369.     
   2   234                        372.     
   2   235                        375.     
   2   236                        378.     
   2   237                        381.     
   2   238                        384.     
   2   239                        387.     
   2   240                        390.     
   2   241                        394.     
   2   242                        397.     
   2   243                        400.     
   2   244                        403.     
   2   245                        407.     
   2   246                        410.     
   2   247                        413.     
   2   248                        417.     
   2   249                        420.     
   2   250                        423.     
   2   251                        427.     
   2   252                        430.     
   2   253                        430.     
   2   254                        430.     
   2   255                        430.     
   2   256                        430.     
   2   257                        430.     
   2   258                        430.     
   2   259                        430.     
   2   260                        430.     
   2   261                        430.     
   2   262                        430.     
   2   263                        430.     
   2   264                        430.     
   2   265                        430.     
   2   266                        430.     
   2   267                        430.     
   2   268                        430.     
   2   269                        430.     
   2   270                        430.     
   2   271                        430.     
   2   272                        434.     
   2   273                        437.     
   2   274                        441.     
   2   275                        444.     
   2   276                        448.     
   2   277                        451.     
   2   278                        455.     
   2   279                        458.     
   2   280                        462.     
   2   281                        466.     
   2   282                        469.     
   2   283                        473.     
   2   284                        477.     
   2   285                        481.     
   2   286                        484.     
   2   287                        488.     
   2   288                        492.     
   2   289                        496.     
   2   290                        500.     
                          
 THE ANALYSIS HAS COMPLETED SUCCESSFULLY
