1

   Abaqus 6.14-1                                  Date 06-Feb-2016   Time 20:17:41
   For use by Supplied By SSQ under license from Dassault Systemes or its subsidiary.

                                                                                 
                                                                                 
 STEP    1     INCREMENT     1     STEP TIME    0.00    


                        S T E P       1     C A L C U L A T I O N   O F   E I G E N V A L U E S

                                            F O R   N A T U R A L   F R E Q U E N C I E S



                                                                                          

     THE LANCZOS EIGENSOLVER IS USED FOR THIS ANALYSIS
     Abaqus WILL COMPUTE UNCOUPLED
      STRUCTURAL AND ACOUSTIC MODES
     NUMBER OF EIGENVALUES                     20
     HIGHEST FREQUENCY OF INTEREST                  1.00000E+18
     MAXIMUM NUMBER OF STEPS WITHIN RUN               35
     BLOCK SIZE FOR LANCZOS PROCEDURE                  7
     THE EIGENVECTORS ARE SCALED SO THAT 
      THE LARGEST DISPLACEMENT ENTRY IN EACH VECTOR
      IS UNITY

     THIS IS A LINEAR PERTURBATION STEP.
     ALL LOADS ARE DEFINED AS CHANGE IN LOAD TO THE REFERENCE STATE

     EXTRAPOLATION WILL NOT BE USED

     CHARACTERISTIC ELEMENT LENGTH     0.100    

     DETAILS REGARDING ACTUAL SOLUTION WAVEFRONT REQUESTED

     DETAILED OUTPUT OF DIAGNOSTICS TO DATABASE REQUESTED

     PRINT OF INCREMENT NUMBER, TIME, ETC., TO THE MESSAGE FILE EVERY     1  INCREMENTS

     COLLECTING MODEL CONSTRAINT INFORMATION FOR OVERCONSTRAINT CHECKS

     COLLECTING STEP CONSTRAINT INFORMATION FOR OVERCONSTRAINT CHECKS

     CHECK POINT   START OF SOLVER    
  
 COMPUTER PRECISION USED BY ABAQUS      2.22045e-016
 CONVERGENCE CRITERION FOR LANCZOS RUN  1.81899e-012
  
 NUMBER OF EQUATIONS                                                         726
 NUMBER OF UNRESTRAINED DEGREES OF FREEDOM                                   405
 HEURISTIC SCALE FOR THE FIRST NONZERO EIGENVALUES (PROBLEM SCALE)  4.53722e+004
 INITIAL SHIFT VALUE                                                0.00000e+000
  
 NUMBER OF CPUS USED BY DIRECT SOLVER     1
  
 NUMBER OF NEGATIVE EIGENVALUES     0
 NUMBER OF POSITIVE EIGENVALUES   726
 NUMBER OF NEGATIVE EIGENVALUES NOT ASSOCIATED WITH LAGRANGE MULTIPLIERS     0
 NUMBER OF LAGRANGE MULTIPLIERS     0
  
 COMPUTATIONAL INTERVAL FOR THE INITIAL LANCZOS RUN
 
 EIGENVALUES NEEDED TO THE RIGHT OF SHIFT VALUE   20
 EIGENVALUES NEEDED TO THE LEFT OF SHIFT VALUE     0
 RIGHT BOUNDARY OF THE COMPUTATIONAL INTERVAL  3.95574e+037
 LEFT BOUNDARY OF THE COMPUTATIONAL INTERVAL  -3.95574e+037
  
 LANCZOS RUN TERMINATED. NUMBER OF STEPS:   11
 ALL THE EIGENVALUES REQUESTED ON THIS LANCZOS RUN ARE FOUND
  
 NUMBER OF ACCEPTED EIGENVALUES   23
  
 ACCEPTED EIGENVALUES
  8.00002e+004 3.61951e+005 3.61951e+005 7.74645e+005 1.37227e+006 1.38650e+006
  1.99704e+006 1.99704e+006 3.55081e+006 4.45900e+006 4.45900e+006 5.30607e+006
  5.36792e+006 7.31372e+006 7.31372e+006 1.16116e+007 1.32863e+007 1.33090e+007
  1.44177e+007 1.44177e+007 1.66766e+007 1.68755e+007 3.15934e+007
  
 FACTORIZATION WITH NEW SHIFT VALUE IS REQUIRED
  
 TRUST INTERVALS AFTER LANCZOS RUN AND COMPRESSION
  
 NUMBER OF TRUST INTERVALS    1
  
 -------------------------------------------------------------------------------------
 | KEY | INSIDE |      INERTIAS     |  SENTINELS  |   OUTSIDE   |  NEED TO FIND      |
 |      ENDS OF INTERVAL     |     ENDS OF SENTINEL      |   COMPUTATIONAL INTERVAL  |
 -------------------------------------------------------------------------------------
 |  +  |      0 |        0        0 |     0     0 |     0     0 |      0    20       |
 |-3.95574e+037 0.00000e+000 |-3.95574e+037 0.00000e+000 |-3.95574e+037 3.95574e+037 |
 -------------------------------------------------------------------------------------
  
 DATA FOR CHOOSING SHIFT
  
 NUMBER OF EIGENVALUES NEEDED IN THE PRIMARY TRUST INTERVAL   20
  
 NUMBER OF MODES FORMING SENTINEL TO THE RIGHT   22
 SHIFT RIGHT        1.55472e+007
  
 NUMBER OF MODES FORMING SENTINEL TO THE LEFT     0
 SHIFT LEFT         0.00000e+000
  
 SHIFTING TO THE RIGHT DIRECTION
 NEW SHIFT          1.55472e+007
  
 NUMBER OF NEGATIVE EIGENVALUES    20
 NUMBER OF POSITIVE EIGENVALUES   706
 NUMBER OF NEGATIVE EIGENVALUES NOT ASSOCIATED WITH LAGRANGE MULTIPLIERS    20
 NUMBER OF LAGRANGE MULTIPLIERS     0
  
 THE REQUIRED NUMBER OF EIGENVALUES IS FOUND
  
 FINAL TRUST INTERVAL
  
 -------------------------------------------------------------------------------------
 | KEY | INSIDE |      INERTIAS     |  SENTINELS  |   OUTSIDE   |  NEED TO FIND      |
 |      ENDS OF INTERVAL     |     ENDS OF SENTINEL      |   COMPUTATIONAL INTERVAL  |
 -------------------------------------------------------------------------------------
 |  +  |     20 |        0       20 |     0     0 |     0     0 |      0     0       |
 |-3.95574e+037 1.55472e+007 |-3.95574e+037 1.55472e+007 |-3.95574e+037 1.55472e+007 |
 -------------------------------------------------------------------------------------
  
 FIRST EIGENVALUE REQUESTED BY THE USER     1
  
 EIGENVALUES REQUESTED BY THE USER
  8.00002e+004 3.61951e+005 3.61951e+005 7.74645e+005 1.37227e+006 1.38650e+006
  1.99704e+006 1.99704e+006 3.55081e+006 4.45900e+006 4.45900e+006 5.30607e+006
  5.36792e+006 7.31372e+006 7.31372e+006 1.16116e+007 1.32863e+007 1.33090e+007
  1.44177e+007 1.44177e+007
  
 EIGENVALUE EXTRACTION USING THE LANCZOS EIGENSOLVER IS COMPLETE
 NUMBER OF LANCZOS RUNS       :   1
 NUMBER OF LANCZOS STEPS      :  11
 NUMBER OF FACTORIZATIONS     :   2
 NUMBER OF BACK SUBSTITUTIONS :  12

     CHECK POINT  END OF SOLVER       

       ELAPSED USER TIME (SEC)      =  0.10000    
       ELAPSED SYSTEM TIME (SEC)    =  0.10000    
       ELAPSED TOTAL CPU TIME (SEC) =  0.20000    
       ELAPSED WALLCLOCK TIME (SEC) =          0
1

   Abaqus 6.14-1                                  Date 06-Feb-2016   Time 20:17:41
   For use by Supplied By SSQ under license from Dassault Systemes or its subsidiary.

                                                                                 
                                                                                 
 STEP    2     INCREMENT     1     STEP TIME    0.00    


                        S T E P       2     R A N D O M    R E S P O N S E   A N A L Y S I S         


                                                                                          
          THE VARIANCE WILL BE COMPUTED NUMERICALLY  
          FREQUENCY RANGE DEFINITIONS (CYCLES/TIME)
                   LOW         HIGH     POINTS         BIAS   TYPE OF SCALING


                   0.100      500.        20          1.00      LOGARITHMIC     

     THIS IS A LINEAR PERTURBATION STEP.
     ALL LOADS ARE DEFINED AS CHANGE IN LOAD TO THE REFERENCE STATE

     EXTRAPOLATION WILL NOT BE USED

     CHARACTERISTIC ELEMENT LENGTH     0.100    

     DETAILS REGARDING ACTUAL SOLUTION WAVEFRONT REQUESTED

     DETAILED OUTPUT OF DIAGNOSTICS TO DATABASE REQUESTED

     PRINT OF INCREMENT NUMBER, TIME, ETC., TO THE MESSAGE FILE EVERY     1  INCREMENTS


                              INCREMENT NUMBER     1
                              FREQUENCY           0.100    


 ***WARNING: THE CHOLESKY DECOMPOSITION WARNINGS GIVEN BELOW MOST LIKELY ARE 
             CAUSED BY THE LINEAR DEPENDENCIES IN THE CORRELATION MATRIX. THEY 
             CAN ALSO BE CAUSED BY INCLUDING NON-PARTICIPATING MODES IN THE 
             PROJECTION. IN THESE CASES THE RESULTS ARE CORRECT AND REDUCING 
             THE NUMBER OF MODES FOR PROJECTION SHOULD REMOVE THE WARNINGS. 
             SINCE THESE WARNINGS ALSO MAY BE CAUSED BY A NON-PHYSICAL SYSTEM, 
             PLEASE VERIFY THE CORRELATION INPUT DATA. WARNINGS ARE GIVEN ONLY 
             FOR THE FIRST 50 OCCURANCES.

 ***WARNING: 8 SINGULARITIES WERE DETECTED DURING CHOLESKY DECOMPOSITION OF 
             GENERALIZED DISPLACEMENT. SEE EXPLANATIONS ABOVE.

 ITERATION SUMMARY FOR THE INCREMENT:   0 TOTAL ITERATIONS, OF WHICH
   0 ARE SEVERE DISCONTINUITY ITERATIONS AND  0 ARE EQUILIBRIUM ITERATIONS.


                              INCREMENT NUMBER     2
                              FREQUENCY           0.138    


 ***WARNING: 7 SINGULARITIES WERE DETECTED DURING CHOLESKY DECOMPOSITION OF THE 
             VARIANCE OF GENERALIZED DISPLACEMENT. SEE EXPLANATIONS ABOVE.

 ***WARNING: 7 SINGULARITIES WERE DETECTED DURING CHOLESKY DECOMPOSITION OF THE 
             VARIANCE OF GENERALIZED VELOCITY. SEE EXPLANATIONS ABOVE.

 ***WARNING: 8 SINGULARITIES WERE DETECTED DURING CHOLESKY DECOMPOSITION OF THE 
             VARIANCE OF GENERALIZED ACCELERATION. SEE EXPLANATIONS ABOVE.

 ***WARNING: 8 SINGULARITIES WERE DETECTED DURING CHOLESKY DECOMPOSITION OF 
             GENERALIZED DISPLACEMENT. SEE EXPLANATIONS ABOVE.

 ITERATION SUMMARY FOR THE INCREMENT:   0 TOTAL ITERATIONS, OF WHICH
   0 ARE SEVERE DISCONTINUITY ITERATIONS AND  0 ARE EQUILIBRIUM ITERATIONS.


                              INCREMENT NUMBER     3
                              FREQUENCY           0.190    


 ***WARNING: 7 SINGULARITIES WERE DETECTED DURING CHOLESKY DECOMPOSITION OF THE 
             VARIANCE OF GENERALIZED DISPLACEMENT. SEE EXPLANATIONS ABOVE.

 ***WARNING: 7 SINGULARITIES WERE DETECTED DURING CHOLESKY DECOMPOSITION OF THE 
             VARIANCE OF GENERALIZED VELOCITY. SEE EXPLANATIONS ABOVE.

 ***WARNING: 7 SINGULARITIES WERE DETECTED DURING CHOLESKY DECOMPOSITION OF THE 
             VARIANCE OF GENERALIZED ACCELERATION. SEE EXPLANATIONS ABOVE.

 ***WARNING: 8 SINGULARITIES WERE DETECTED DURING CHOLESKY DECOMPOSITION OF 
             GENERALIZED DISPLACEMENT. SEE EXPLANATIONS ABOVE.

 ITERATION SUMMARY FOR THE INCREMENT:   0 TOTAL ITERATIONS, OF WHICH
   0 ARE SEVERE DISCONTINUITY ITERATIONS AND  0 ARE EQUILIBRIUM ITERATIONS.


                              INCREMENT NUMBER     4
                              FREQUENCY           0.262    


 ***WARNING: 7 SINGULARITIES WERE DETECTED DURING CHOLESKY DECOMPOSITION OF THE 
             VARIANCE OF GENERALIZED DISPLACEMENT. SEE EXPLANATIONS ABOVE.

 ***WARNING: 8 SINGULARITIES WERE DETECTED DURING CHOLESKY DECOMPOSITION OF THE 
             VARIANCE OF GENERALIZED VELOCITY. SEE EXPLANATIONS ABOVE.

 ***WARNING: 8 SINGULARITIES WERE DETECTED DURING CHOLESKY DECOMPOSITION OF THE 
             VARIANCE OF GENERALIZED ACCELERATION. SEE EXPLANATIONS ABOVE.

 ***WARNING: 9 SINGULARITIES WERE DETECTED DURING CHOLESKY DECOMPOSITION OF 
             GENERALIZED DISPLACEMENT. SEE EXPLANATIONS ABOVE.

 ITERATION SUMMARY FOR THE INCREMENT:   0 TOTAL ITERATIONS, OF WHICH
   0 ARE SEVERE DISCONTINUITY ITERATIONS AND  0 ARE EQUILIBRIUM ITERATIONS.


                              INCREMENT NUMBER     5
                              FREQUENCY           0.362    


 ***WARNING: 8 SINGULARITIES WERE DETECTED DURING CHOLESKY DECOMPOSITION OF THE 
             VARIANCE OF GENERALIZED DISPLACEMENT. SEE EXPLANATIONS ABOVE.

 ***WARNING: 8 SINGULARITIES WERE DETECTED DURING CHOLESKY DECOMPOSITION OF THE 
             VARIANCE OF GENERALIZED VELOCITY. SEE EXPLANATIONS ABOVE.

 ***WARNING: 8 SINGULARITIES WERE DETECTED DURING CHOLESKY DECOMPOSITION OF THE 
             VARIANCE OF GENERALIZED ACCELERATION. SEE EXPLANATIONS ABOVE.

 ***WARNING: 9 SINGULARITIES WERE DETECTED DURING CHOLESKY DECOMPOSITION OF 
             GENERALIZED DISPLACEMENT. SEE EXPLANATIONS ABOVE.

 ITERATION SUMMARY FOR THE INCREMENT:   0 TOTAL ITERATIONS, OF WHICH
   0 ARE SEVERE DISCONTINUITY ITERATIONS AND  0 ARE EQUILIBRIUM ITERATIONS.


                              INCREMENT NUMBER     6
                              FREQUENCY           0.499    


 ***WARNING: 8 SINGULARITIES WERE DETECTED DURING CHOLESKY DECOMPOSITION OF THE 
             VARIANCE OF GENERALIZED DISPLACEMENT. SEE EXPLANATIONS ABOVE.

 ***WARNING: 8 SINGULARITIES WERE DETECTED DURING CHOLESKY DECOMPOSITION OF THE 
             VARIANCE OF GENERALIZED VELOCITY. SEE EXPLANATIONS ABOVE.

 ***WARNING: 8 SINGULARITIES WERE DETECTED DURING CHOLESKY DECOMPOSITION OF THE 
             VARIANCE OF GENERALIZED ACCELERATION. SEE EXPLANATIONS ABOVE.

 ***WARNING: 9 SINGULARITIES WERE DETECTED DURING CHOLESKY DECOMPOSITION OF 
             GENERALIZED DISPLACEMENT. SEE EXPLANATIONS ABOVE.

 ITERATION SUMMARY FOR THE INCREMENT:   0 TOTAL ITERATIONS, OF WHICH
   0 ARE SEVERE DISCONTINUITY ITERATIONS AND  0 ARE EQUILIBRIUM ITERATIONS.


                              INCREMENT NUMBER     7
                              FREQUENCY           0.689    


 ***WARNING: 8 SINGULARITIES WERE DETECTED DURING CHOLESKY DECOMPOSITION OF THE 
             VARIANCE OF GENERALIZED DISPLACEMENT. SEE EXPLANATIONS ABOVE.

 ***WARNING: 8 SINGULARITIES WERE DETECTED DURING CHOLESKY DECOMPOSITION OF THE 
             VARIANCE OF GENERALIZED VELOCITY. SEE EXPLANATIONS ABOVE.

 ***WARNING: 8 SINGULARITIES WERE DETECTED DURING CHOLESKY DECOMPOSITION OF THE 
             VARIANCE OF GENERALIZED ACCELERATION. SEE EXPLANATIONS ABOVE.

 ***WARNING: 9 SINGULARITIES WERE DETECTED DURING CHOLESKY DECOMPOSITION OF 
             GENERALIZED DISPLACEMENT. SEE EXPLANATIONS ABOVE.

 ITERATION SUMMARY FOR THE INCREMENT:   0 TOTAL ITERATIONS, OF WHICH
   0 ARE SEVERE DISCONTINUITY ITERATIONS AND  0 ARE EQUILIBRIUM ITERATIONS.


                              INCREMENT NUMBER     8
                              FREQUENCY           0.950    


 ***WARNING: 7 SINGULARITIES WERE DETECTED DURING CHOLESKY DECOMPOSITION OF THE 
             VARIANCE OF GENERALIZED DISPLACEMENT. SEE EXPLANATIONS ABOVE.

 ***WARNING: 7 SINGULARITIES WERE DETECTED DURING CHOLESKY DECOMPOSITION OF THE 
             VARIANCE OF GENERALIZED VELOCITY. SEE EXPLANATIONS ABOVE.

 ***WARNING: 7 SINGULARITIES WERE DETECTED DURING CHOLESKY DECOMPOSITION OF THE 
             VARIANCE OF GENERALIZED ACCELERATION. SEE EXPLANATIONS ABOVE.

 ***WARNING: 9 SINGULARITIES WERE DETECTED DURING CHOLESKY DECOMPOSITION OF 
             GENERALIZED DISPLACEMENT. SEE EXPLANATIONS ABOVE.

 ITERATION SUMMARY FOR THE INCREMENT:   0 TOTAL ITERATIONS, OF WHICH
   0 ARE SEVERE DISCONTINUITY ITERATIONS AND  0 ARE EQUILIBRIUM ITERATIONS.


                              INCREMENT NUMBER     9
                              FREQUENCY            1.31    


 ***WARNING: 7 SINGULARITIES WERE DETECTED DURING CHOLESKY DECOMPOSITION OF THE 
             VARIANCE OF GENERALIZED DISPLACEMENT. SEE EXPLANATIONS ABOVE.

 ***WARNING: 7 SINGULARITIES WERE DETECTED DURING CHOLESKY DECOMPOSITION OF THE 
             VARIANCE OF GENERALIZED VELOCITY. SEE EXPLANATIONS ABOVE.

 ***WARNING: 7 SINGULARITIES WERE DETECTED DURING CHOLESKY DECOMPOSITION OF THE 
             VARIANCE OF GENERALIZED ACCELERATION. SEE EXPLANATIONS ABOVE.

 ***WARNING: 9 SINGULARITIES WERE DETECTED DURING CHOLESKY DECOMPOSITION OF 
             GENERALIZED DISPLACEMENT. SEE EXPLANATIONS ABOVE.

 ITERATION SUMMARY FOR THE INCREMENT:   0 TOTAL ITERATIONS, OF WHICH
   0 ARE SEVERE DISCONTINUITY ITERATIONS AND  0 ARE EQUILIBRIUM ITERATIONS.


                              INCREMENT NUMBER    10
                              FREQUENCY            1.81    


 ***WARNING: 7 SINGULARITIES WERE DETECTED DURING CHOLESKY DECOMPOSITION OF THE 
             VARIANCE OF GENERALIZED DISPLACEMENT. SEE EXPLANATIONS ABOVE.

 ***WARNING: 7 SINGULARITIES WERE DETECTED DURING CHOLESKY DECOMPOSITION OF THE 
             VARIANCE OF GENERALIZED VELOCITY. SEE EXPLANATIONS ABOVE.

 ***WARNING: 7 SINGULARITIES WERE DETECTED DURING CHOLESKY DECOMPOSITION OF THE 
             VARIANCE OF GENERALIZED ACCELERATION. SEE EXPLANATIONS ABOVE.

 ***WARNING: 10 SINGULARITIES WERE DETECTED DURING CHOLESKY DECOMPOSITION OF 
             GENERALIZED DISPLACEMENT. SEE EXPLANATIONS ABOVE.

 ITERATION SUMMARY FOR THE INCREMENT:   0 TOTAL ITERATIONS, OF WHICH
   0 ARE SEVERE DISCONTINUITY ITERATIONS AND  0 ARE EQUILIBRIUM ITERATIONS.


                              INCREMENT NUMBER    11
                              FREQUENCY            2.49    


 ***WARNING: 7 SINGULARITIES WERE DETECTED DURING CHOLESKY DECOMPOSITION OF THE 
             VARIANCE OF GENERALIZED DISPLACEMENT. SEE EXPLANATIONS ABOVE.

 ***WARNING: 8 SINGULARITIES WERE DETECTED DURING CHOLESKY DECOMPOSITION OF THE 
             VARIANCE OF GENERALIZED VELOCITY. SEE EXPLANATIONS ABOVE.

 ***WARNING: 8 SINGULARITIES WERE DETECTED DURING CHOLESKY DECOMPOSITION OF THE 
             VARIANCE OF GENERALIZED ACCELERATION. SEE EXPLANATIONS ABOVE.

 ***WARNING: 10 SINGULARITIES WERE DETECTED DURING CHOLESKY DECOMPOSITION OF 
             GENERALIZED DISPLACEMENT. SEE EXPLANATIONS ABOVE.

 ITERATION SUMMARY FOR THE INCREMENT:   0 TOTAL ITERATIONS, OF WHICH
   0 ARE SEVERE DISCONTINUITY ITERATIONS AND  0 ARE EQUILIBRIUM ITERATIONS.


                              INCREMENT NUMBER    12
                              FREQUENCY            3.44    


 ***WARNING: 7 SINGULARITIES WERE DETECTED DURING CHOLESKY DECOMPOSITION OF THE 
             VARIANCE OF GENERALIZED DISPLACEMENT. SEE EXPLANATIONS ABOVE.

 ***WARNING: 7 SINGULARITIES WERE DETECTED DURING CHOLESKY DECOMPOSITION OF THE 
             VARIANCE OF GENERALIZED VELOCITY. SEE EXPLANATIONS ABOVE.

 ***WARNING: 7 SINGULARITIES WERE DETECTED DURING CHOLESKY DECOMPOSITION OF THE 
             VARIANCE OF GENERALIZED ACCELERATION. SEE EXPLANATIONS ABOVE.

 ***WARNING: 10 SINGULARITIES WERE DETECTED DURING CHOLESKY DECOMPOSITION OF 
             GENERALIZED DISPLACEMENT. SEE EXPLANATIONS ABOVE.

 ITERATION SUMMARY FOR THE INCREMENT:   0 TOTAL ITERATIONS, OF WHICH
   0 ARE SEVERE DISCONTINUITY ITERATIONS AND  0 ARE EQUILIBRIUM ITERATIONS.


                              INCREMENT NUMBER    13
                              FREQUENCY            4.74    


 ***WARNING: 6 SINGULARITIES WERE DETECTED DURING CHOLESKY DECOMPOSITION OF THE 
             VARIANCE OF GENERALIZED DISPLACEMENT. SEE EXPLANATIONS ABOVE.

 ***WARNING: 6 SINGULARITIES WERE DETECTED DURING CHOLESKY DECOMPOSITION OF THE 
             VARIANCE OF GENERALIZED VELOCITY. SEE EXPLANATIONS ABOVE.

 ***WARNING: 7 SINGULARITIES WERE DETECTED DURING CHOLESKY DECOMPOSITION OF THE 
             VARIANCE OF GENERALIZED ACCELERATION. SEE EXPLANATIONS ABOVE.

 ***WARNING: 10 SINGULARITIES WERE DETECTED DURING CHOLESKY DECOMPOSITION OF 
             GENERALIZED DISPLACEMENT. SEE EXPLANATIONS ABOVE.

 ITERATION SUMMARY FOR THE INCREMENT:   0 TOTAL ITERATIONS, OF WHICH
   0 ARE SEVERE DISCONTINUITY ITERATIONS AND  0 ARE EQUILIBRIUM ITERATIONS.


                              INCREMENT NUMBER    14
                              FREQUENCY            6.54    


 ***WARNING: 6 SINGULARITIES WERE DETECTED DURING CHOLESKY DECOMPOSITION OF THE 
             VARIANCE OF GENERALIZED DISPLACEMENT. SEE EXPLANATIONS ABOVE.

 ITERATION SUMMARY FOR THE INCREMENT:   0 TOTAL ITERATIONS, OF WHICH
   0 ARE SEVERE DISCONTINUITY ITERATIONS AND  0 ARE EQUILIBRIUM ITERATIONS.


                              INCREMENT NUMBER    15
                              FREQUENCY            9.02    


 ITERATION SUMMARY FOR THE INCREMENT:   0 TOTAL ITERATIONS, OF WHICH
   0 ARE SEVERE DISCONTINUITY ITERATIONS AND  0 ARE EQUILIBRIUM ITERATIONS.


                              INCREMENT NUMBER    16
                              FREQUENCY            12.4    


 ITERATION SUMMARY FOR THE INCREMENT:   0 TOTAL ITERATIONS, OF WHICH
   0 ARE SEVERE DISCONTINUITY ITERATIONS AND  0 ARE EQUILIBRIUM ITERATIONS.


                              INCREMENT NUMBER    17
                              FREQUENCY            17.2    


 ITERATION SUMMARY FOR THE INCREMENT:   0 TOTAL ITERATIONS, OF WHICH
   0 ARE SEVERE DISCONTINUITY ITERATIONS AND  0 ARE EQUILIBRIUM ITERATIONS.


                              INCREMENT NUMBER    18
                              FREQUENCY            23.7    


 ITERATION SUMMARY FOR THE INCREMENT:   0 TOTAL ITERATIONS, OF WHICH
   0 ARE SEVERE DISCONTINUITY ITERATIONS AND  0 ARE EQUILIBRIUM ITERATIONS.


                              INCREMENT NUMBER    19
                              FREQUENCY            32.6    


 ITERATION SUMMARY FOR THE INCREMENT:   0 TOTAL ITERATIONS, OF WHICH
   0 ARE SEVERE DISCONTINUITY ITERATIONS AND  0 ARE EQUILIBRIUM ITERATIONS.


                              INCREMENT NUMBER    20
                              FREQUENCY            45.0    


 ITERATION SUMMARY FOR THE INCREMENT:   0 TOTAL ITERATIONS, OF WHICH
   0 ARE SEVERE DISCONTINUITY ITERATIONS AND  0 ARE EQUILIBRIUM ITERATIONS.


                              INCREMENT NUMBER    21
                              FREQUENCY            46.8    


 ITERATION SUMMARY FOR THE INCREMENT:   0 TOTAL ITERATIONS, OF WHICH
   0 ARE SEVERE DISCONTINUITY ITERATIONS AND  0 ARE EQUILIBRIUM ITERATIONS.


                              INCREMENT NUMBER    22
                              FREQUENCY            48.7    


 ITERATION SUMMARY FOR THE INCREMENT:   0 TOTAL ITERATIONS, OF WHICH
   0 ARE SEVERE DISCONTINUITY ITERATIONS AND  0 ARE EQUILIBRIUM ITERATIONS.


                              INCREMENT NUMBER    23
                              FREQUENCY            50.7    


 ITERATION SUMMARY FOR THE INCREMENT:   0 TOTAL ITERATIONS, OF WHICH
   0 ARE SEVERE DISCONTINUITY ITERATIONS AND  0 ARE EQUILIBRIUM ITERATIONS.


                              INCREMENT NUMBER    24
                              FREQUENCY            52.8    


 ITERATION SUMMARY FOR THE INCREMENT:   0 TOTAL ITERATIONS, OF WHICH
   0 ARE SEVERE DISCONTINUITY ITERATIONS AND  0 ARE EQUILIBRIUM ITERATIONS.


                              INCREMENT NUMBER    25
                              FREQUENCY            54.9    


 ITERATION SUMMARY FOR THE INCREMENT:   0 TOTAL ITERATIONS, OF WHICH
   0 ARE SEVERE DISCONTINUITY ITERATIONS AND  0 ARE EQUILIBRIUM ITERATIONS.


                              INCREMENT NUMBER    26
                              FREQUENCY            57.1    


 ITERATION SUMMARY FOR THE INCREMENT:   0 TOTAL ITERATIONS, OF WHICH
   0 ARE SEVERE DISCONTINUITY ITERATIONS AND  0 ARE EQUILIBRIUM ITERATIONS.


                              INCREMENT NUMBER    27
                              FREQUENCY            59.4    


 ITERATION SUMMARY FOR THE INCREMENT:   0 TOTAL ITERATIONS, OF WHICH
   0 ARE SEVERE DISCONTINUITY ITERATIONS AND  0 ARE EQUILIBRIUM ITERATIONS.


                              INCREMENT NUMBER    28
                              FREQUENCY            61.9    


 ITERATION SUMMARY FOR THE INCREMENT:   0 TOTAL ITERATIONS, OF WHICH
   0 ARE SEVERE DISCONTINUITY ITERATIONS AND  0 ARE EQUILIBRIUM ITERATIONS.


                              INCREMENT NUMBER    29
                              FREQUENCY            64.4    


 ITERATION SUMMARY FOR THE INCREMENT:   0 TOTAL ITERATIONS, OF WHICH
   0 ARE SEVERE DISCONTINUITY ITERATIONS AND  0 ARE EQUILIBRIUM ITERATIONS.


                              INCREMENT NUMBER    30
                              FREQUENCY            67.0    


 ITERATION SUMMARY FOR THE INCREMENT:   0 TOTAL ITERATIONS, OF WHICH
   0 ARE SEVERE DISCONTINUITY ITERATIONS AND  0 ARE EQUILIBRIUM ITERATIONS.


                              INCREMENT NUMBER    31
                              FREQUENCY            69.7    


 ITERATION SUMMARY FOR THE INCREMENT:   0 TOTAL ITERATIONS, OF WHICH
   0 ARE SEVERE DISCONTINUITY ITERATIONS AND  0 ARE EQUILIBRIUM ITERATIONS.


                              INCREMENT NUMBER    32
                              FREQUENCY            72.5    


 ITERATION SUMMARY FOR THE INCREMENT:   0 TOTAL ITERATIONS, OF WHICH
   0 ARE SEVERE DISCONTINUITY ITERATIONS AND  0 ARE EQUILIBRIUM ITERATIONS.


                              INCREMENT NUMBER    33
                              FREQUENCY            75.4    


 ITERATION SUMMARY FOR THE INCREMENT:   0 TOTAL ITERATIONS, OF WHICH
   0 ARE SEVERE DISCONTINUITY ITERATIONS AND  0 ARE EQUILIBRIUM ITERATIONS.


                              INCREMENT NUMBER    34
                              FREQUENCY            78.5    


 ITERATION SUMMARY FOR THE INCREMENT:   0 TOTAL ITERATIONS, OF WHICH
   0 ARE SEVERE DISCONTINUITY ITERATIONS AND  0 ARE EQUILIBRIUM ITERATIONS.


                              INCREMENT NUMBER    35
                              FREQUENCY            81.7    


 ITERATION SUMMARY FOR THE INCREMENT:   0 TOTAL ITERATIONS, OF WHICH
   0 ARE SEVERE DISCONTINUITY ITERATIONS AND  0 ARE EQUILIBRIUM ITERATIONS.


                              INCREMENT NUMBER    36
                              FREQUENCY            85.0    


 ITERATION SUMMARY FOR THE INCREMENT:   0 TOTAL ITERATIONS, OF WHICH
   0 ARE SEVERE DISCONTINUITY ITERATIONS AND  0 ARE EQUILIBRIUM ITERATIONS.


                              INCREMENT NUMBER    37
                              FREQUENCY            88.4    


 ITERATION SUMMARY FOR THE INCREMENT:   0 TOTAL ITERATIONS, OF WHICH
   0 ARE SEVERE DISCONTINUITY ITERATIONS AND  0 ARE EQUILIBRIUM ITERATIONS.


                              INCREMENT NUMBER    38
                              FREQUENCY            92.0    


 ITERATION SUMMARY FOR THE INCREMENT:   0 TOTAL ITERATIONS, OF WHICH
   0 ARE SEVERE DISCONTINUITY ITERATIONS AND  0 ARE EQUILIBRIUM ITERATIONS.


                              INCREMENT NUMBER    39
                              FREQUENCY            95.8    


 ITERATION SUMMARY FOR THE INCREMENT:   0 TOTAL ITERATIONS, OF WHICH
   0 ARE SEVERE DISCONTINUITY ITERATIONS AND  0 ARE EQUILIBRIUM ITERATIONS.


                              INCREMENT NUMBER    40
                              FREQUENCY            95.8    


 ITERATION SUMMARY FOR THE INCREMENT:   0 TOTAL ITERATIONS, OF WHICH
   0 ARE SEVERE DISCONTINUITY ITERATIONS AND  0 ARE EQUILIBRIUM ITERATIONS.


                              INCREMENT NUMBER    41
                              FREQUENCY            95.8    


 ITERATION SUMMARY FOR THE INCREMENT:   0 TOTAL ITERATIONS, OF WHICH
   0 ARE SEVERE DISCONTINUITY ITERATIONS AND  0 ARE EQUILIBRIUM ITERATIONS.


                              INCREMENT NUMBER    42
                              FREQUENCY            95.8    


 ITERATION SUMMARY FOR THE INCREMENT:   0 TOTAL ITERATIONS, OF WHICH
   0 ARE SEVERE DISCONTINUITY ITERATIONS AND  0 ARE EQUILIBRIUM ITERATIONS.


                              INCREMENT NUMBER    43
                              FREQUENCY            95.8    


 ITERATION SUMMARY FOR THE INCREMENT:   0 TOTAL ITERATIONS, OF WHICH
   0 ARE SEVERE DISCONTINUITY ITERATIONS AND  0 ARE EQUILIBRIUM ITERATIONS.


                              INCREMENT NUMBER    44
                              FREQUENCY            97.7    


 ITERATION SUMMARY FOR THE INCREMENT:   0 TOTAL ITERATIONS, OF WHICH
   0 ARE SEVERE DISCONTINUITY ITERATIONS AND  0 ARE EQUILIBRIUM ITERATIONS.


                              INCREMENT NUMBER    45
                              FREQUENCY            99.7    


 ITERATION SUMMARY FOR THE INCREMENT:   0 TOTAL ITERATIONS, OF WHICH
   0 ARE SEVERE DISCONTINUITY ITERATIONS AND  0 ARE EQUILIBRIUM ITERATIONS.


                              INCREMENT NUMBER    46
                              FREQUENCY            102.    


 ITERATION SUMMARY FOR THE INCREMENT:   0 TOTAL ITERATIONS, OF WHICH
   0 ARE SEVERE DISCONTINUITY ITERATIONS AND  0 ARE EQUILIBRIUM ITERATIONS.


                              INCREMENT NUMBER    47
                              FREQUENCY            104.    


 ITERATION SUMMARY FOR THE INCREMENT:   0 TOTAL ITERATIONS, OF WHICH
   0 ARE SEVERE DISCONTINUITY ITERATIONS AND  0 ARE EQUILIBRIUM ITERATIONS.


                              INCREMENT NUMBER    48
                              FREQUENCY            106.    


 ITERATION SUMMARY FOR THE INCREMENT:   0 TOTAL ITERATIONS, OF WHICH
   0 ARE SEVERE DISCONTINUITY ITERATIONS AND  0 ARE EQUILIBRIUM ITERATIONS.


                              INCREMENT NUMBER    49
                              FREQUENCY            108.    


 ITERATION SUMMARY FOR THE INCREMENT:   0 TOTAL ITERATIONS, OF WHICH
   0 ARE SEVERE DISCONTINUITY ITERATIONS AND  0 ARE EQUILIBRIUM ITERATIONS.


                              INCREMENT NUMBER    50
                              FREQUENCY            110.    


 ITERATION SUMMARY FOR THE INCREMENT:   0 TOTAL ITERATIONS, OF WHICH
   0 ARE SEVERE DISCONTINUITY ITERATIONS AND  0 ARE EQUILIBRIUM ITERATIONS.


                              INCREMENT NUMBER    51
                              FREQUENCY            112.    


 ITERATION SUMMARY FOR THE INCREMENT:   0 TOTAL ITERATIONS, OF WHICH
   0 ARE SEVERE DISCONTINUITY ITERATIONS AND  0 ARE EQUILIBRIUM ITERATIONS.


                              INCREMENT NUMBER    52
                              FREQUENCY            115.    


 ITERATION SUMMARY FOR THE INCREMENT:   0 TOTAL ITERATIONS, OF WHICH
   0 ARE SEVERE DISCONTINUITY ITERATIONS AND  0 ARE EQUILIBRIUM ITERATIONS.


                              INCREMENT NUMBER    53
                              FREQUENCY            117.    


 ITERATION SUMMARY FOR THE INCREMENT:   0 TOTAL ITERATIONS, OF WHICH
   0 ARE SEVERE DISCONTINUITY ITERATIONS AND  0 ARE EQUILIBRIUM ITERATIONS.


                              INCREMENT NUMBER    54
                              FREQUENCY            119.    


 ITERATION SUMMARY FOR THE INCREMENT:   0 TOTAL ITERATIONS, OF WHICH
   0 ARE SEVERE DISCONTINUITY ITERATIONS AND  0 ARE EQUILIBRIUM ITERATIONS.


                              INCREMENT NUMBER    55
                              FREQUENCY            122.    


 ITERATION SUMMARY FOR THE INCREMENT:   0 TOTAL ITERATIONS, OF WHICH
   0 ARE SEVERE DISCONTINUITY ITERATIONS AND  0 ARE EQUILIBRIUM ITERATIONS.


                              INCREMENT NUMBER    56
                              FREQUENCY            124.    


 ITERATION SUMMARY FOR THE INCREMENT:   0 TOTAL ITERATIONS, OF WHICH
   0 ARE SEVERE DISCONTINUITY ITERATIONS AND  0 ARE EQUILIBRIUM ITERATIONS.


                              INCREMENT NUMBER    57
                              FREQUENCY            127.    


 ITERATION SUMMARY FOR THE INCREMENT:   0 TOTAL ITERATIONS, OF WHICH
   0 ARE SEVERE DISCONTINUITY ITERATIONS AND  0 ARE EQUILIBRIUM ITERATIONS.


                              INCREMENT NUMBER    58
                              FREQUENCY            129.    


 ITERATION SUMMARY FOR THE INCREMENT:   0 TOTAL ITERATIONS, OF WHICH
   0 ARE SEVERE DISCONTINUITY ITERATIONS AND  0 ARE EQUILIBRIUM ITERATIONS.


                              INCREMENT NUMBER    59
                              FREQUENCY            132.    


 ITERATION SUMMARY FOR THE INCREMENT:   0 TOTAL ITERATIONS, OF WHICH
   0 ARE SEVERE DISCONTINUITY ITERATIONS AND  0 ARE EQUILIBRIUM ITERATIONS.


                              INCREMENT NUMBER    60
                              FREQUENCY            135.    


 ITERATION SUMMARY FOR THE INCREMENT:   0 TOTAL ITERATIONS, OF WHICH
   0 ARE SEVERE DISCONTINUITY ITERATIONS AND  0 ARE EQUILIBRIUM ITERATIONS.


                              INCREMENT NUMBER    61
                              FREQUENCY            137.    


 ITERATION SUMMARY FOR THE INCREMENT:   0 TOTAL ITERATIONS, OF WHICH
   0 ARE SEVERE DISCONTINUITY ITERATIONS AND  0 ARE EQUILIBRIUM ITERATIONS.


                              INCREMENT NUMBER    62
                              FREQUENCY            140.    


 ITERATION SUMMARY FOR THE INCREMENT:   0 TOTAL ITERATIONS, OF WHICH
   0 ARE SEVERE DISCONTINUITY ITERATIONS AND  0 ARE EQUILIBRIUM ITERATIONS.


                              INCREMENT NUMBER    63
                              FREQUENCY            142.    


 ITERATION SUMMARY FOR THE INCREMENT:   0 TOTAL ITERATIONS, OF WHICH
   0 ARE SEVERE DISCONTINUITY ITERATIONS AND  0 ARE EQUILIBRIUM ITERATIONS.


                              INCREMENT NUMBER    64
                              FREQUENCY            144.    


 ITERATION SUMMARY FOR THE INCREMENT:   0 TOTAL ITERATIONS, OF WHICH
   0 ARE SEVERE DISCONTINUITY ITERATIONS AND  0 ARE EQUILIBRIUM ITERATIONS.


                              INCREMENT NUMBER    65
                              FREQUENCY            147.    


 ITERATION SUMMARY FOR THE INCREMENT:   0 TOTAL ITERATIONS, OF WHICH
   0 ARE SEVERE DISCONTINUITY ITERATIONS AND  0 ARE EQUILIBRIUM ITERATIONS.


                              INCREMENT NUMBER    66
                              FREQUENCY            149.    


 ITERATION SUMMARY FOR THE INCREMENT:   0 TOTAL ITERATIONS, OF WHICH
   0 ARE SEVERE DISCONTINUITY ITERATIONS AND  0 ARE EQUILIBRIUM ITERATIONS.


                              INCREMENT NUMBER    67
                              FREQUENCY            151.    


 ITERATION SUMMARY FOR THE INCREMENT:   0 TOTAL ITERATIONS, OF WHICH
   0 ARE SEVERE DISCONTINUITY ITERATIONS AND  0 ARE EQUILIBRIUM ITERATIONS.


                              INCREMENT NUMBER    68
                              FREQUENCY            153.    


 ITERATION SUMMARY FOR THE INCREMENT:   0 TOTAL ITERATIONS, OF WHICH
   0 ARE SEVERE DISCONTINUITY ITERATIONS AND  0 ARE EQUILIBRIUM ITERATIONS.


                              INCREMENT NUMBER    69
                              FREQUENCY            156.    


 ITERATION SUMMARY FOR THE INCREMENT:   0 TOTAL ITERATIONS, OF WHICH
   0 ARE SEVERE DISCONTINUITY ITERATIONS AND  0 ARE EQUILIBRIUM ITERATIONS.


                              INCREMENT NUMBER    70
                              FREQUENCY            158.    


 ITERATION SUMMARY FOR THE INCREMENT:   0 TOTAL ITERATIONS, OF WHICH
   0 ARE SEVERE DISCONTINUITY ITERATIONS AND  0 ARE EQUILIBRIUM ITERATIONS.


                              INCREMENT NUMBER    71
                              FREQUENCY            160.    


 ITERATION SUMMARY FOR THE INCREMENT:   0 TOTAL ITERATIONS, OF WHICH
   0 ARE SEVERE DISCONTINUITY ITERATIONS AND  0 ARE EQUILIBRIUM ITERATIONS.


                              INCREMENT NUMBER    72
                              FREQUENCY            163.    


 ITERATION SUMMARY FOR THE INCREMENT:   0 TOTAL ITERATIONS, OF WHICH
   0 ARE SEVERE DISCONTINUITY ITERATIONS AND  0 ARE EQUILIBRIUM ITERATIONS.


                              INCREMENT NUMBER    73
                              FREQUENCY            165.    


 ITERATION SUMMARY FOR THE INCREMENT:   0 TOTAL ITERATIONS, OF WHICH
   0 ARE SEVERE DISCONTINUITY ITERATIONS AND  0 ARE EQUILIBRIUM ITERATIONS.


                              INCREMENT NUMBER    74
                              FREQUENCY            168.    


 ITERATION SUMMARY FOR THE INCREMENT:   0 TOTAL ITERATIONS, OF WHICH
   0 ARE SEVERE DISCONTINUITY ITERATIONS AND  0 ARE EQUILIBRIUM ITERATIONS.


                              INCREMENT NUMBER    75
                              FREQUENCY            170.    


 ITERATION SUMMARY FOR THE INCREMENT:   0 TOTAL ITERATIONS, OF WHICH
   0 ARE SEVERE DISCONTINUITY ITERATIONS AND  0 ARE EQUILIBRIUM ITERATIONS.


                              INCREMENT NUMBER    76
                              FREQUENCY            173.    


 ITERATION SUMMARY FOR THE INCREMENT:   0 TOTAL ITERATIONS, OF WHICH
   0 ARE SEVERE DISCONTINUITY ITERATIONS AND  0 ARE EQUILIBRIUM ITERATIONS.


                              INCREMENT NUMBER    77
                              FREQUENCY            176.    


 ITERATION SUMMARY FOR THE INCREMENT:   0 TOTAL ITERATIONS, OF WHICH
   0 ARE SEVERE DISCONTINUITY ITERATIONS AND  0 ARE EQUILIBRIUM ITERATIONS.


                              INCREMENT NUMBER    78
                              FREQUENCY            178.    


 ITERATION SUMMARY FOR THE INCREMENT:   0 TOTAL ITERATIONS, OF WHICH
   0 ARE SEVERE DISCONTINUITY ITERATIONS AND  0 ARE EQUILIBRIUM ITERATIONS.


                              INCREMENT NUMBER    79
                              FREQUENCY            181.    


 ITERATION SUMMARY FOR THE INCREMENT:   0 TOTAL ITERATIONS, OF WHICH
   0 ARE SEVERE DISCONTINUITY ITERATIONS AND  0 ARE EQUILIBRIUM ITERATIONS.


                              INCREMENT NUMBER    80
                              FREQUENCY            184.    


 ITERATION SUMMARY FOR THE INCREMENT:   0 TOTAL ITERATIONS, OF WHICH
   0 ARE SEVERE DISCONTINUITY ITERATIONS AND  0 ARE EQUILIBRIUM ITERATIONS.


                              INCREMENT NUMBER    81
                              FREQUENCY            186.    


 ITERATION SUMMARY FOR THE INCREMENT:   0 TOTAL ITERATIONS, OF WHICH
   0 ARE SEVERE DISCONTINUITY ITERATIONS AND  0 ARE EQUILIBRIUM ITERATIONS.


                              INCREMENT NUMBER    82
                              FREQUENCY            186.    


 ITERATION SUMMARY FOR THE INCREMENT:   0 TOTAL ITERATIONS, OF WHICH
   0 ARE SEVERE DISCONTINUITY ITERATIONS AND  0 ARE EQUILIBRIUM ITERATIONS.


                              INCREMENT NUMBER    83
                              FREQUENCY            187.    


 ITERATION SUMMARY FOR THE INCREMENT:   0 TOTAL ITERATIONS, OF WHICH
   0 ARE SEVERE DISCONTINUITY ITERATIONS AND  0 ARE EQUILIBRIUM ITERATIONS.


                              INCREMENT NUMBER    84
                              FREQUENCY            187.    


 ITERATION SUMMARY FOR THE INCREMENT:   0 TOTAL ITERATIONS, OF WHICH
   0 ARE SEVERE DISCONTINUITY ITERATIONS AND  0 ARE EQUILIBRIUM ITERATIONS.


                              INCREMENT NUMBER    85
                              FREQUENCY            187.    


 ITERATION SUMMARY FOR THE INCREMENT:   0 TOTAL ITERATIONS, OF WHICH
   0 ARE SEVERE DISCONTINUITY ITERATIONS AND  0 ARE EQUILIBRIUM ITERATIONS.


                              INCREMENT NUMBER    86
                              FREQUENCY            187.    


 ITERATION SUMMARY FOR THE INCREMENT:   0 TOTAL ITERATIONS, OF WHICH
   0 ARE SEVERE DISCONTINUITY ITERATIONS AND  0 ARE EQUILIBRIUM ITERATIONS.


                              INCREMENT NUMBER    87
                              FREQUENCY            187.    


 ITERATION SUMMARY FOR THE INCREMENT:   0 TOTAL ITERATIONS, OF WHICH
   0 ARE SEVERE DISCONTINUITY ITERATIONS AND  0 ARE EQUILIBRIUM ITERATIONS.


                              INCREMENT NUMBER    88
                              FREQUENCY            187.    


 ITERATION SUMMARY FOR THE INCREMENT:   0 TOTAL ITERATIONS, OF WHICH
   0 ARE SEVERE DISCONTINUITY ITERATIONS AND  0 ARE EQUILIBRIUM ITERATIONS.


                              INCREMENT NUMBER    89
                              FREQUENCY            187.    


 ITERATION SUMMARY FOR THE INCREMENT:   0 TOTAL ITERATIONS, OF WHICH
   0 ARE SEVERE DISCONTINUITY ITERATIONS AND  0 ARE EQUILIBRIUM ITERATIONS.


                              INCREMENT NUMBER    90
                              FREQUENCY            187.    


 ITERATION SUMMARY FOR THE INCREMENT:   0 TOTAL ITERATIONS, OF WHICH
   0 ARE SEVERE DISCONTINUITY ITERATIONS AND  0 ARE EQUILIBRIUM ITERATIONS.


                              INCREMENT NUMBER    91
                              FREQUENCY            187.    


 ITERATION SUMMARY FOR THE INCREMENT:   0 TOTAL ITERATIONS, OF WHICH
   0 ARE SEVERE DISCONTINUITY ITERATIONS AND  0 ARE EQUILIBRIUM ITERATIONS.


                              INCREMENT NUMBER    92
                              FREQUENCY            187.    


 ITERATION SUMMARY FOR THE INCREMENT:   0 TOTAL ITERATIONS, OF WHICH
   0 ARE SEVERE DISCONTINUITY ITERATIONS AND  0 ARE EQUILIBRIUM ITERATIONS.


                              INCREMENT NUMBER    93
                              FREQUENCY            187.    


 ITERATION SUMMARY FOR THE INCREMENT:   0 TOTAL ITERATIONS, OF WHICH
   0 ARE SEVERE DISCONTINUITY ITERATIONS AND  0 ARE EQUILIBRIUM ITERATIONS.


                              INCREMENT NUMBER    94
                              FREQUENCY            187.    


 ITERATION SUMMARY FOR THE INCREMENT:   0 TOTAL ITERATIONS, OF WHICH
   0 ARE SEVERE DISCONTINUITY ITERATIONS AND  0 ARE EQUILIBRIUM ITERATIONS.


                              INCREMENT NUMBER    95
                              FREQUENCY            187.    


 ITERATION SUMMARY FOR THE INCREMENT:   0 TOTAL ITERATIONS, OF WHICH
   0 ARE SEVERE DISCONTINUITY ITERATIONS AND  0 ARE EQUILIBRIUM ITERATIONS.


                              INCREMENT NUMBER    96
                              FREQUENCY            187.    


 ITERATION SUMMARY FOR THE INCREMENT:   0 TOTAL ITERATIONS, OF WHICH
   0 ARE SEVERE DISCONTINUITY ITERATIONS AND  0 ARE EQUILIBRIUM ITERATIONS.


                              INCREMENT NUMBER    97
                              FREQUENCY            187.    


 ITERATION SUMMARY FOR THE INCREMENT:   0 TOTAL ITERATIONS, OF WHICH
   0 ARE SEVERE DISCONTINUITY ITERATIONS AND  0 ARE EQUILIBRIUM ITERATIONS.


                              INCREMENT NUMBER    98
                              FREQUENCY            187.    


 ITERATION SUMMARY FOR THE INCREMENT:   0 TOTAL ITERATIONS, OF WHICH
   0 ARE SEVERE DISCONTINUITY ITERATIONS AND  0 ARE EQUILIBRIUM ITERATIONS.


                              INCREMENT NUMBER    99
                              FREQUENCY            187.    


 ITERATION SUMMARY FOR THE INCREMENT:   0 TOTAL ITERATIONS, OF WHICH
   0 ARE SEVERE DISCONTINUITY ITERATIONS AND  0 ARE EQUILIBRIUM ITERATIONS.


                              INCREMENT NUMBER   100
                              FREQUENCY            187.    


 ITERATION SUMMARY FOR THE INCREMENT:   0 TOTAL ITERATIONS, OF WHICH
   0 ARE SEVERE DISCONTINUITY ITERATIONS AND  0 ARE EQUILIBRIUM ITERATIONS.


                              INCREMENT NUMBER   101
                              FREQUENCY            189.    


 ITERATION SUMMARY FOR THE INCREMENT:   0 TOTAL ITERATIONS, OF WHICH
   0 ARE SEVERE DISCONTINUITY ITERATIONS AND  0 ARE EQUILIBRIUM ITERATIONS.


                              INCREMENT NUMBER   102
                              FREQUENCY            191.    


 ITERATION SUMMARY FOR THE INCREMENT:   0 TOTAL ITERATIONS, OF WHICH
   0 ARE SEVERE DISCONTINUITY ITERATIONS AND  0 ARE EQUILIBRIUM ITERATIONS.


                              INCREMENT NUMBER   103
                              FREQUENCY            193.    


 ITERATION SUMMARY FOR THE INCREMENT:   0 TOTAL ITERATIONS, OF WHICH
   0 ARE SEVERE DISCONTINUITY ITERATIONS AND  0 ARE EQUILIBRIUM ITERATIONS.


                              INCREMENT NUMBER   104
                              FREQUENCY            195.    


 ITERATION SUMMARY FOR THE INCREMENT:   0 TOTAL ITERATIONS, OF WHICH
   0 ARE SEVERE DISCONTINUITY ITERATIONS AND  0 ARE EQUILIBRIUM ITERATIONS.


                              INCREMENT NUMBER   105
                              FREQUENCY            197.    


 ITERATION SUMMARY FOR THE INCREMENT:   0 TOTAL ITERATIONS, OF WHICH
   0 ARE SEVERE DISCONTINUITY ITERATIONS AND  0 ARE EQUILIBRIUM ITERATIONS.


                              INCREMENT NUMBER   106
                              FREQUENCY            199.    


 ITERATION SUMMARY FOR THE INCREMENT:   0 TOTAL ITERATIONS, OF WHICH
   0 ARE SEVERE DISCONTINUITY ITERATIONS AND  0 ARE EQUILIBRIUM ITERATIONS.


                              INCREMENT NUMBER   107
                              FREQUENCY            200.    


 ITERATION SUMMARY FOR THE INCREMENT:   0 TOTAL ITERATIONS, OF WHICH
   0 ARE SEVERE DISCONTINUITY ITERATIONS AND  0 ARE EQUILIBRIUM ITERATIONS.


                              INCREMENT NUMBER   108
                              FREQUENCY            202.    


 ITERATION SUMMARY FOR THE INCREMENT:   0 TOTAL ITERATIONS, OF WHICH
   0 ARE SEVERE DISCONTINUITY ITERATIONS AND  0 ARE EQUILIBRIUM ITERATIONS.


                              INCREMENT NUMBER   109
                              FREQUENCY            204.    


 ITERATION SUMMARY FOR THE INCREMENT:   0 TOTAL ITERATIONS, OF WHICH
   0 ARE SEVERE DISCONTINUITY ITERATIONS AND  0 ARE EQUILIBRIUM ITERATIONS.


                              INCREMENT NUMBER   110
                              FREQUENCY            206.    


 ITERATION SUMMARY FOR THE INCREMENT:   0 TOTAL ITERATIONS, OF WHICH
   0 ARE SEVERE DISCONTINUITY ITERATIONS AND  0 ARE EQUILIBRIUM ITERATIONS.


                              INCREMENT NUMBER   111
                              FREQUENCY            208.    


 ITERATION SUMMARY FOR THE INCREMENT:   0 TOTAL ITERATIONS, OF WHICH
   0 ARE SEVERE DISCONTINUITY ITERATIONS AND  0 ARE EQUILIBRIUM ITERATIONS.


                              INCREMENT NUMBER   112
                              FREQUENCY            210.    


 ITERATION SUMMARY FOR THE INCREMENT:   0 TOTAL ITERATIONS, OF WHICH
   0 ARE SEVERE DISCONTINUITY ITERATIONS AND  0 ARE EQUILIBRIUM ITERATIONS.


                              INCREMENT NUMBER   113
                              FREQUENCY            212.    


 ITERATION SUMMARY FOR THE INCREMENT:   0 TOTAL ITERATIONS, OF WHICH
   0 ARE SEVERE DISCONTINUITY ITERATIONS AND  0 ARE EQUILIBRIUM ITERATIONS.


                              INCREMENT NUMBER   114
                              FREQUENCY            214.    


 ITERATION SUMMARY FOR THE INCREMENT:   0 TOTAL ITERATIONS, OF WHICH
   0 ARE SEVERE DISCONTINUITY ITERATIONS AND  0 ARE EQUILIBRIUM ITERATIONS.


                              INCREMENT NUMBER   115
                              FREQUENCY            216.    


 ITERATION SUMMARY FOR THE INCREMENT:   0 TOTAL ITERATIONS, OF WHICH
   0 ARE SEVERE DISCONTINUITY ITERATIONS AND  0 ARE EQUILIBRIUM ITERATIONS.


                              INCREMENT NUMBER   116
                              FREQUENCY            219.    


 ITERATION SUMMARY FOR THE INCREMENT:   0 TOTAL ITERATIONS, OF WHICH
   0 ARE SEVERE DISCONTINUITY ITERATIONS AND  0 ARE EQUILIBRIUM ITERATIONS.


                              INCREMENT NUMBER   117
                              FREQUENCY            221.    


 ITERATION SUMMARY FOR THE INCREMENT:   0 TOTAL ITERATIONS, OF WHICH
   0 ARE SEVERE DISCONTINUITY ITERATIONS AND  0 ARE EQUILIBRIUM ITERATIONS.


                              INCREMENT NUMBER   118
                              FREQUENCY            223.    


 ITERATION SUMMARY FOR THE INCREMENT:   0 TOTAL ITERATIONS, OF WHICH
   0 ARE SEVERE DISCONTINUITY ITERATIONS AND  0 ARE EQUILIBRIUM ITERATIONS.


                              INCREMENT NUMBER   119
                              FREQUENCY            225.    


 ITERATION SUMMARY FOR THE INCREMENT:   0 TOTAL ITERATIONS, OF WHICH
   0 ARE SEVERE DISCONTINUITY ITERATIONS AND  0 ARE EQUILIBRIUM ITERATIONS.


                              INCREMENT NUMBER   120
                              FREQUENCY            225.    


 ITERATION SUMMARY FOR THE INCREMENT:   0 TOTAL ITERATIONS, OF WHICH
   0 ARE SEVERE DISCONTINUITY ITERATIONS AND  0 ARE EQUILIBRIUM ITERATIONS.


                              INCREMENT NUMBER   121
                              FREQUENCY            225.    


 ITERATION SUMMARY FOR THE INCREMENT:   0 TOTAL ITERATIONS, OF WHICH
   0 ARE SEVERE DISCONTINUITY ITERATIONS AND  0 ARE EQUILIBRIUM ITERATIONS.


                              INCREMENT NUMBER   122
                              FREQUENCY            225.    


 ITERATION SUMMARY FOR THE INCREMENT:   0 TOTAL ITERATIONS, OF WHICH
   0 ARE SEVERE DISCONTINUITY ITERATIONS AND  0 ARE EQUILIBRIUM ITERATIONS.


                              INCREMENT NUMBER   123
                              FREQUENCY            225.    


 ITERATION SUMMARY FOR THE INCREMENT:   0 TOTAL ITERATIONS, OF WHICH
   0 ARE SEVERE DISCONTINUITY ITERATIONS AND  0 ARE EQUILIBRIUM ITERATIONS.


                              INCREMENT NUMBER   124
                              FREQUENCY            225.    


 ITERATION SUMMARY FOR THE INCREMENT:   0 TOTAL ITERATIONS, OF WHICH
   0 ARE SEVERE DISCONTINUITY ITERATIONS AND  0 ARE EQUILIBRIUM ITERATIONS.


                              INCREMENT NUMBER   125
                              FREQUENCY            225.    


 ITERATION SUMMARY FOR THE INCREMENT:   0 TOTAL ITERATIONS, OF WHICH
   0 ARE SEVERE DISCONTINUITY ITERATIONS AND  0 ARE EQUILIBRIUM ITERATIONS.


                              INCREMENT NUMBER   126
                              FREQUENCY            225.    


 ITERATION SUMMARY FOR THE INCREMENT:   0 TOTAL ITERATIONS, OF WHICH
   0 ARE SEVERE DISCONTINUITY ITERATIONS AND  0 ARE EQUILIBRIUM ITERATIONS.


                              INCREMENT NUMBER   127
                              FREQUENCY            225.    


 ITERATION SUMMARY FOR THE INCREMENT:   0 TOTAL ITERATIONS, OF WHICH
   0 ARE SEVERE DISCONTINUITY ITERATIONS AND  0 ARE EQUILIBRIUM ITERATIONS.


                              INCREMENT NUMBER   128
                              FREQUENCY            225.    


 ITERATION SUMMARY FOR THE INCREMENT:   0 TOTAL ITERATIONS, OF WHICH
   0 ARE SEVERE DISCONTINUITY ITERATIONS AND  0 ARE EQUILIBRIUM ITERATIONS.


                              INCREMENT NUMBER   129
                              FREQUENCY            225.    


 ITERATION SUMMARY FOR THE INCREMENT:   0 TOTAL ITERATIONS, OF WHICH
   0 ARE SEVERE DISCONTINUITY ITERATIONS AND  0 ARE EQUILIBRIUM ITERATIONS.


                              INCREMENT NUMBER   130
                              FREQUENCY            225.    


 ITERATION SUMMARY FOR THE INCREMENT:   0 TOTAL ITERATIONS, OF WHICH
   0 ARE SEVERE DISCONTINUITY ITERATIONS AND  0 ARE EQUILIBRIUM ITERATIONS.


                              INCREMENT NUMBER   131
                              FREQUENCY            225.    


 ITERATION SUMMARY FOR THE INCREMENT:   0 TOTAL ITERATIONS, OF WHICH
   0 ARE SEVERE DISCONTINUITY ITERATIONS AND  0 ARE EQUILIBRIUM ITERATIONS.


                              INCREMENT NUMBER   132
                              FREQUENCY            225.    


 ITERATION SUMMARY FOR THE INCREMENT:   0 TOTAL ITERATIONS, OF WHICH
   0 ARE SEVERE DISCONTINUITY ITERATIONS AND  0 ARE EQUILIBRIUM ITERATIONS.


                              INCREMENT NUMBER   133
                              FREQUENCY            225.    


 ITERATION SUMMARY FOR THE INCREMENT:   0 TOTAL ITERATIONS, OF WHICH
   0 ARE SEVERE DISCONTINUITY ITERATIONS AND  0 ARE EQUILIBRIUM ITERATIONS.


                              INCREMENT NUMBER   134
                              FREQUENCY            225.    


 ITERATION SUMMARY FOR THE INCREMENT:   0 TOTAL ITERATIONS, OF WHICH
   0 ARE SEVERE DISCONTINUITY ITERATIONS AND  0 ARE EQUILIBRIUM ITERATIONS.


                              INCREMENT NUMBER   135
                              FREQUENCY            225.    


 ITERATION SUMMARY FOR THE INCREMENT:   0 TOTAL ITERATIONS, OF WHICH
   0 ARE SEVERE DISCONTINUITY ITERATIONS AND  0 ARE EQUILIBRIUM ITERATIONS.


                              INCREMENT NUMBER   136
                              FREQUENCY            225.    


 ITERATION SUMMARY FOR THE INCREMENT:   0 TOTAL ITERATIONS, OF WHICH
   0 ARE SEVERE DISCONTINUITY ITERATIONS AND  0 ARE EQUILIBRIUM ITERATIONS.


                              INCREMENT NUMBER   137
                              FREQUENCY            225.    


 ITERATION SUMMARY FOR THE INCREMENT:   0 TOTAL ITERATIONS, OF WHICH
   0 ARE SEVERE DISCONTINUITY ITERATIONS AND  0 ARE EQUILIBRIUM ITERATIONS.


                              INCREMENT NUMBER   138
                              FREQUENCY            225.    


 ITERATION SUMMARY FOR THE INCREMENT:   0 TOTAL ITERATIONS, OF WHICH
   0 ARE SEVERE DISCONTINUITY ITERATIONS AND  0 ARE EQUILIBRIUM ITERATIONS.


                              INCREMENT NUMBER   139
                              FREQUENCY            228.    


 ITERATION SUMMARY FOR THE INCREMENT:   0 TOTAL ITERATIONS, OF WHICH
   0 ARE SEVERE DISCONTINUITY ITERATIONS AND  0 ARE EQUILIBRIUM ITERATIONS.


                              INCREMENT NUMBER   140
                              FREQUENCY            232.    


 ITERATION SUMMARY FOR THE INCREMENT:   0 TOTAL ITERATIONS, OF WHICH
   0 ARE SEVERE DISCONTINUITY ITERATIONS AND  0 ARE EQUILIBRIUM ITERATIONS.


                              INCREMENT NUMBER   141
                              FREQUENCY            235.    


 ITERATION SUMMARY FOR THE INCREMENT:   0 TOTAL ITERATIONS, OF WHICH
   0 ARE SEVERE DISCONTINUITY ITERATIONS AND  0 ARE EQUILIBRIUM ITERATIONS.


                              INCREMENT NUMBER   142
                              FREQUENCY            239.    


 ITERATION SUMMARY FOR THE INCREMENT:   0 TOTAL ITERATIONS, OF WHICH
   0 ARE SEVERE DISCONTINUITY ITERATIONS AND  0 ARE EQUILIBRIUM ITERATIONS.


                              INCREMENT NUMBER   143
                              FREQUENCY            243.    


 ITERATION SUMMARY FOR THE INCREMENT:   0 TOTAL ITERATIONS, OF WHICH
   0 ARE SEVERE DISCONTINUITY ITERATIONS AND  0 ARE EQUILIBRIUM ITERATIONS.


                              INCREMENT NUMBER   144
                              FREQUENCY            246.    


 ITERATION SUMMARY FOR THE INCREMENT:   0 TOTAL ITERATIONS, OF WHICH
   0 ARE SEVERE DISCONTINUITY ITERATIONS AND  0 ARE EQUILIBRIUM ITERATIONS.


                              INCREMENT NUMBER   145
                              FREQUENCY            250.    


 ITERATION SUMMARY FOR THE INCREMENT:   0 TOTAL ITERATIONS, OF WHICH
   0 ARE SEVERE DISCONTINUITY ITERATIONS AND  0 ARE EQUILIBRIUM ITERATIONS.


                              INCREMENT NUMBER   146
                              FREQUENCY            254.    


 ITERATION SUMMARY FOR THE INCREMENT:   0 TOTAL ITERATIONS, OF WHICH
   0 ARE SEVERE DISCONTINUITY ITERATIONS AND  0 ARE EQUILIBRIUM ITERATIONS.


                              INCREMENT NUMBER   147
                              FREQUENCY            258.    


 ITERATION SUMMARY FOR THE INCREMENT:   0 TOTAL ITERATIONS, OF WHICH
   0 ARE SEVERE DISCONTINUITY ITERATIONS AND  0 ARE EQUILIBRIUM ITERATIONS.


                              INCREMENT NUMBER   148
                              FREQUENCY            262.    


 ITERATION SUMMARY FOR THE INCREMENT:   0 TOTAL ITERATIONS, OF WHICH
   0 ARE SEVERE DISCONTINUITY ITERATIONS AND  0 ARE EQUILIBRIUM ITERATIONS.


                              INCREMENT NUMBER   149
                              FREQUENCY            266.    


 ITERATION SUMMARY FOR THE INCREMENT:   0 TOTAL ITERATIONS, OF WHICH
   0 ARE SEVERE DISCONTINUITY ITERATIONS AND  0 ARE EQUILIBRIUM ITERATIONS.


                              INCREMENT NUMBER   150
                              FREQUENCY            270.    


 ITERATION SUMMARY FOR THE INCREMENT:   0 TOTAL ITERATIONS, OF WHICH
   0 ARE SEVERE DISCONTINUITY ITERATIONS AND  0 ARE EQUILIBRIUM ITERATIONS.


                              INCREMENT NUMBER   151
                              FREQUENCY            274.    


 ITERATION SUMMARY FOR THE INCREMENT:   0 TOTAL ITERATIONS, OF WHICH
   0 ARE SEVERE DISCONTINUITY ITERATIONS AND  0 ARE EQUILIBRIUM ITERATIONS.


                              INCREMENT NUMBER   152
                              FREQUENCY            278.    


 ITERATION SUMMARY FOR THE INCREMENT:   0 TOTAL ITERATIONS, OF WHICH
   0 ARE SEVERE DISCONTINUITY ITERATIONS AND  0 ARE EQUILIBRIUM ITERATIONS.


                              INCREMENT NUMBER   153
                              FREQUENCY            282.    


 ITERATION SUMMARY FOR THE INCREMENT:   0 TOTAL ITERATIONS, OF WHICH
   0 ARE SEVERE DISCONTINUITY ITERATIONS AND  0 ARE EQUILIBRIUM ITERATIONS.


                              INCREMENT NUMBER   154
                              FREQUENCY            287.    


 ITERATION SUMMARY FOR THE INCREMENT:   0 TOTAL ITERATIONS, OF WHICH
   0 ARE SEVERE DISCONTINUITY ITERATIONS AND  0 ARE EQUILIBRIUM ITERATIONS.


                              INCREMENT NUMBER   155
                              FREQUENCY            291.    


 ITERATION SUMMARY FOR THE INCREMENT:   0 TOTAL ITERATIONS, OF WHICH
   0 ARE SEVERE DISCONTINUITY ITERATIONS AND  0 ARE EQUILIBRIUM ITERATIONS.


                              INCREMENT NUMBER   156
                              FREQUENCY            295.    


 ITERATION SUMMARY FOR THE INCREMENT:   0 TOTAL ITERATIONS, OF WHICH
   0 ARE SEVERE DISCONTINUITY ITERATIONS AND  0 ARE EQUILIBRIUM ITERATIONS.


                              INCREMENT NUMBER   157
                              FREQUENCY            300.    


 ITERATION SUMMARY FOR THE INCREMENT:   0 TOTAL ITERATIONS, OF WHICH
   0 ARE SEVERE DISCONTINUITY ITERATIONS AND  0 ARE EQUILIBRIUM ITERATIONS.


                              INCREMENT NUMBER   158
                              FREQUENCY            302.    


 ITERATION SUMMARY FOR THE INCREMENT:   0 TOTAL ITERATIONS, OF WHICH
   0 ARE SEVERE DISCONTINUITY ITERATIONS AND  0 ARE EQUILIBRIUM ITERATIONS.


                              INCREMENT NUMBER   159
                              FREQUENCY            304.    


 ITERATION SUMMARY FOR THE INCREMENT:   0 TOTAL ITERATIONS, OF WHICH
   0 ARE SEVERE DISCONTINUITY ITERATIONS AND  0 ARE EQUILIBRIUM ITERATIONS.


                              INCREMENT NUMBER   160
                              FREQUENCY            305.    


 ITERATION SUMMARY FOR THE INCREMENT:   0 TOTAL ITERATIONS, OF WHICH
   0 ARE SEVERE DISCONTINUITY ITERATIONS AND  0 ARE EQUILIBRIUM ITERATIONS.


                              INCREMENT NUMBER   161
                              FREQUENCY            307.    


 ITERATION SUMMARY FOR THE INCREMENT:   0 TOTAL ITERATIONS, OF WHICH
   0 ARE SEVERE DISCONTINUITY ITERATIONS AND  0 ARE EQUILIBRIUM ITERATIONS.


                              INCREMENT NUMBER   162
                              FREQUENCY            309.    


 ITERATION SUMMARY FOR THE INCREMENT:   0 TOTAL ITERATIONS, OF WHICH
   0 ARE SEVERE DISCONTINUITY ITERATIONS AND  0 ARE EQUILIBRIUM ITERATIONS.


                              INCREMENT NUMBER   163
                              FREQUENCY            311.    


 ITERATION SUMMARY FOR THE INCREMENT:   0 TOTAL ITERATIONS, OF WHICH
   0 ARE SEVERE DISCONTINUITY ITERATIONS AND  0 ARE EQUILIBRIUM ITERATIONS.


                              INCREMENT NUMBER   164
                              FREQUENCY            313.    


 ITERATION SUMMARY FOR THE INCREMENT:   0 TOTAL ITERATIONS, OF WHICH
   0 ARE SEVERE DISCONTINUITY ITERATIONS AND  0 ARE EQUILIBRIUM ITERATIONS.


                              INCREMENT NUMBER   165
                              FREQUENCY            315.    


 ITERATION SUMMARY FOR THE INCREMENT:   0 TOTAL ITERATIONS, OF WHICH
   0 ARE SEVERE DISCONTINUITY ITERATIONS AND  0 ARE EQUILIBRIUM ITERATIONS.


                              INCREMENT NUMBER   166
                              FREQUENCY            317.    


 ITERATION SUMMARY FOR THE INCREMENT:   0 TOTAL ITERATIONS, OF WHICH
   0 ARE SEVERE DISCONTINUITY ITERATIONS AND  0 ARE EQUILIBRIUM ITERATIONS.


                              INCREMENT NUMBER   167
                              FREQUENCY            318.    


 ITERATION SUMMARY FOR THE INCREMENT:   0 TOTAL ITERATIONS, OF WHICH
   0 ARE SEVERE DISCONTINUITY ITERATIONS AND  0 ARE EQUILIBRIUM ITERATIONS.


                              INCREMENT NUMBER   168
                              FREQUENCY            320.    


 ITERATION SUMMARY FOR THE INCREMENT:   0 TOTAL ITERATIONS, OF WHICH
   0 ARE SEVERE DISCONTINUITY ITERATIONS AND  0 ARE EQUILIBRIUM ITERATIONS.


                              INCREMENT NUMBER   169
                              FREQUENCY            322.    


 ITERATION SUMMARY FOR THE INCREMENT:   0 TOTAL ITERATIONS, OF WHICH
   0 ARE SEVERE DISCONTINUITY ITERATIONS AND  0 ARE EQUILIBRIUM ITERATIONS.


                              INCREMENT NUMBER   170
                              FREQUENCY            324.    


 ITERATION SUMMARY FOR THE INCREMENT:   0 TOTAL ITERATIONS, OF WHICH
   0 ARE SEVERE DISCONTINUITY ITERATIONS AND  0 ARE EQUILIBRIUM ITERATIONS.


                              INCREMENT NUMBER   171
                              FREQUENCY            326.    


 ITERATION SUMMARY FOR THE INCREMENT:   0 TOTAL ITERATIONS, OF WHICH
   0 ARE SEVERE DISCONTINUITY ITERATIONS AND  0 ARE EQUILIBRIUM ITERATIONS.


                              INCREMENT NUMBER   172
                              FREQUENCY            328.    


 ITERATION SUMMARY FOR THE INCREMENT:   0 TOTAL ITERATIONS, OF WHICH
   0 ARE SEVERE DISCONTINUITY ITERATIONS AND  0 ARE EQUILIBRIUM ITERATIONS.


                              INCREMENT NUMBER   173
                              FREQUENCY            330.    


 ITERATION SUMMARY FOR THE INCREMENT:   0 TOTAL ITERATIONS, OF WHICH
   0 ARE SEVERE DISCONTINUITY ITERATIONS AND  0 ARE EQUILIBRIUM ITERATIONS.


                              INCREMENT NUMBER   174
                              FREQUENCY            332.    


 ITERATION SUMMARY FOR THE INCREMENT:   0 TOTAL ITERATIONS, OF WHICH
   0 ARE SEVERE DISCONTINUITY ITERATIONS AND  0 ARE EQUILIBRIUM ITERATIONS.


                              INCREMENT NUMBER   175
                              FREQUENCY            334.    


 ITERATION SUMMARY FOR THE INCREMENT:   0 TOTAL ITERATIONS, OF WHICH
   0 ARE SEVERE DISCONTINUITY ITERATIONS AND  0 ARE EQUILIBRIUM ITERATIONS.


                              INCREMENT NUMBER   176
                              FREQUENCY            336.    


 ITERATION SUMMARY FOR THE INCREMENT:   0 TOTAL ITERATIONS, OF WHICH
   0 ARE SEVERE DISCONTINUITY ITERATIONS AND  0 ARE EQUILIBRIUM ITERATIONS.


                              INCREMENT NUMBER   177
                              FREQUENCY            336.    


 ITERATION SUMMARY FOR THE INCREMENT:   0 TOTAL ITERATIONS, OF WHICH
   0 ARE SEVERE DISCONTINUITY ITERATIONS AND  0 ARE EQUILIBRIUM ITERATIONS.


                              INCREMENT NUMBER   178
                              FREQUENCY            336.    


 ITERATION SUMMARY FOR THE INCREMENT:   0 TOTAL ITERATIONS, OF WHICH
   0 ARE SEVERE DISCONTINUITY ITERATIONS AND  0 ARE EQUILIBRIUM ITERATIONS.


                              INCREMENT NUMBER   179
                              FREQUENCY            336.    


 ITERATION SUMMARY FOR THE INCREMENT:   0 TOTAL ITERATIONS, OF WHICH
   0 ARE SEVERE DISCONTINUITY ITERATIONS AND  0 ARE EQUILIBRIUM ITERATIONS.


                              INCREMENT NUMBER   180
                              FREQUENCY            336.    


 ITERATION SUMMARY FOR THE INCREMENT:   0 TOTAL ITERATIONS, OF WHICH
   0 ARE SEVERE DISCONTINUITY ITERATIONS AND  0 ARE EQUILIBRIUM ITERATIONS.


                              INCREMENT NUMBER   181
                              FREQUENCY            336.    


 ITERATION SUMMARY FOR THE INCREMENT:   0 TOTAL ITERATIONS, OF WHICH
   0 ARE SEVERE DISCONTINUITY ITERATIONS AND  0 ARE EQUILIBRIUM ITERATIONS.


                              INCREMENT NUMBER   182
                              FREQUENCY            336.    


 ITERATION SUMMARY FOR THE INCREMENT:   0 TOTAL ITERATIONS, OF WHICH
   0 ARE SEVERE DISCONTINUITY ITERATIONS AND  0 ARE EQUILIBRIUM ITERATIONS.


                              INCREMENT NUMBER   183
                              FREQUENCY            336.    


 ITERATION SUMMARY FOR THE INCREMENT:   0 TOTAL ITERATIONS, OF WHICH
   0 ARE SEVERE DISCONTINUITY ITERATIONS AND  0 ARE EQUILIBRIUM ITERATIONS.


                              INCREMENT NUMBER   184
                              FREQUENCY            336.    


 ITERATION SUMMARY FOR THE INCREMENT:   0 TOTAL ITERATIONS, OF WHICH
   0 ARE SEVERE DISCONTINUITY ITERATIONS AND  0 ARE EQUILIBRIUM ITERATIONS.


                              INCREMENT NUMBER   185
                              FREQUENCY            336.    


 ITERATION SUMMARY FOR THE INCREMENT:   0 TOTAL ITERATIONS, OF WHICH
   0 ARE SEVERE DISCONTINUITY ITERATIONS AND  0 ARE EQUILIBRIUM ITERATIONS.


                              INCREMENT NUMBER   186
                              FREQUENCY            336.    


 ITERATION SUMMARY FOR THE INCREMENT:   0 TOTAL ITERATIONS, OF WHICH
   0 ARE SEVERE DISCONTINUITY ITERATIONS AND  0 ARE EQUILIBRIUM ITERATIONS.


                              INCREMENT NUMBER   187
                              FREQUENCY            336.    


 ITERATION SUMMARY FOR THE INCREMENT:   0 TOTAL ITERATIONS, OF WHICH
   0 ARE SEVERE DISCONTINUITY ITERATIONS AND  0 ARE EQUILIBRIUM ITERATIONS.


                              INCREMENT NUMBER   188
                              FREQUENCY            336.    


 ITERATION SUMMARY FOR THE INCREMENT:   0 TOTAL ITERATIONS, OF WHICH
   0 ARE SEVERE DISCONTINUITY ITERATIONS AND  0 ARE EQUILIBRIUM ITERATIONS.


                              INCREMENT NUMBER   189
                              FREQUENCY            336.    


 ITERATION SUMMARY FOR THE INCREMENT:   0 TOTAL ITERATIONS, OF WHICH
   0 ARE SEVERE DISCONTINUITY ITERATIONS AND  0 ARE EQUILIBRIUM ITERATIONS.


                              INCREMENT NUMBER   190
                              FREQUENCY            336.    


 ITERATION SUMMARY FOR THE INCREMENT:   0 TOTAL ITERATIONS, OF WHICH
   0 ARE SEVERE DISCONTINUITY ITERATIONS AND  0 ARE EQUILIBRIUM ITERATIONS.


                              INCREMENT NUMBER   191
                              FREQUENCY            336.    


 ITERATION SUMMARY FOR THE INCREMENT:   0 TOTAL ITERATIONS, OF WHICH
   0 ARE SEVERE DISCONTINUITY ITERATIONS AND  0 ARE EQUILIBRIUM ITERATIONS.


                              INCREMENT NUMBER   192
                              FREQUENCY            336.    


 ITERATION SUMMARY FOR THE INCREMENT:   0 TOTAL ITERATIONS, OF WHICH
   0 ARE SEVERE DISCONTINUITY ITERATIONS AND  0 ARE EQUILIBRIUM ITERATIONS.


                              INCREMENT NUMBER   193
                              FREQUENCY            336.    


 ITERATION SUMMARY FOR THE INCREMENT:   0 TOTAL ITERATIONS, OF WHICH
   0 ARE SEVERE DISCONTINUITY ITERATIONS AND  0 ARE EQUILIBRIUM ITERATIONS.


                              INCREMENT NUMBER   194
                              FREQUENCY            336.    


 ITERATION SUMMARY FOR THE INCREMENT:   0 TOTAL ITERATIONS, OF WHICH
   0 ARE SEVERE DISCONTINUITY ITERATIONS AND  0 ARE EQUILIBRIUM ITERATIONS.


                              INCREMENT NUMBER   195
                              FREQUENCY            336.    


 ITERATION SUMMARY FOR THE INCREMENT:   0 TOTAL ITERATIONS, OF WHICH
   0 ARE SEVERE DISCONTINUITY ITERATIONS AND  0 ARE EQUILIBRIUM ITERATIONS.


                              INCREMENT NUMBER   196
                              FREQUENCY            338.    


 ITERATION SUMMARY FOR THE INCREMENT:   0 TOTAL ITERATIONS, OF WHICH
   0 ARE SEVERE DISCONTINUITY ITERATIONS AND  0 ARE EQUILIBRIUM ITERATIONS.


                              INCREMENT NUMBER   197
                              FREQUENCY            339.    


 ITERATION SUMMARY FOR THE INCREMENT:   0 TOTAL ITERATIONS, OF WHICH
   0 ARE SEVERE DISCONTINUITY ITERATIONS AND  0 ARE EQUILIBRIUM ITERATIONS.


                              INCREMENT NUMBER   198
                              FREQUENCY            341.    


 ITERATION SUMMARY FOR THE INCREMENT:   0 TOTAL ITERATIONS, OF WHICH
   0 ARE SEVERE DISCONTINUITY ITERATIONS AND  0 ARE EQUILIBRIUM ITERATIONS.


                              INCREMENT NUMBER   199
                              FREQUENCY            342.    


 ITERATION SUMMARY FOR THE INCREMENT:   0 TOTAL ITERATIONS, OF WHICH
   0 ARE SEVERE DISCONTINUITY ITERATIONS AND  0 ARE EQUILIBRIUM ITERATIONS.


                              INCREMENT NUMBER   200
                              FREQUENCY            344.    


 ITERATION SUMMARY FOR THE INCREMENT:   0 TOTAL ITERATIONS, OF WHICH
   0 ARE SEVERE DISCONTINUITY ITERATIONS AND  0 ARE EQUILIBRIUM ITERATIONS.


                              INCREMENT NUMBER   201
                              FREQUENCY            345.    


 ITERATION SUMMARY FOR THE INCREMENT:   0 TOTAL ITERATIONS, OF WHICH
   0 ARE SEVERE DISCONTINUITY ITERATIONS AND  0 ARE EQUILIBRIUM ITERATIONS.


                              INCREMENT NUMBER   202
                              FREQUENCY            347.    


 ITERATION SUMMARY FOR THE INCREMENT:   0 TOTAL ITERATIONS, OF WHICH
   0 ARE SEVERE DISCONTINUITY ITERATIONS AND  0 ARE EQUILIBRIUM ITERATIONS.


                              INCREMENT NUMBER   203
                              FREQUENCY            349.    


 ITERATION SUMMARY FOR THE INCREMENT:   0 TOTAL ITERATIONS, OF WHICH
   0 ARE SEVERE DISCONTINUITY ITERATIONS AND  0 ARE EQUILIBRIUM ITERATIONS.


                              INCREMENT NUMBER   204
                              FREQUENCY            350.    


 ITERATION SUMMARY FOR THE INCREMENT:   0 TOTAL ITERATIONS, OF WHICH
   0 ARE SEVERE DISCONTINUITY ITERATIONS AND  0 ARE EQUILIBRIUM ITERATIONS.


                              INCREMENT NUMBER   205
                              FREQUENCY            352.    


 ITERATION SUMMARY FOR THE INCREMENT:   0 TOTAL ITERATIONS, OF WHICH
   0 ARE SEVERE DISCONTINUITY ITERATIONS AND  0 ARE EQUILIBRIUM ITERATIONS.


                              INCREMENT NUMBER   206
                              FREQUENCY            353.    


 ITERATION SUMMARY FOR THE INCREMENT:   0 TOTAL ITERATIONS, OF WHICH
   0 ARE SEVERE DISCONTINUITY ITERATIONS AND  0 ARE EQUILIBRIUM ITERATIONS.


                              INCREMENT NUMBER   207
                              FREQUENCY            355.    


 ITERATION SUMMARY FOR THE INCREMENT:   0 TOTAL ITERATIONS, OF WHICH
   0 ARE SEVERE DISCONTINUITY ITERATIONS AND  0 ARE EQUILIBRIUM ITERATIONS.


                              INCREMENT NUMBER   208
                              FREQUENCY            357.    


 ITERATION SUMMARY FOR THE INCREMENT:   0 TOTAL ITERATIONS, OF WHICH
   0 ARE SEVERE DISCONTINUITY ITERATIONS AND  0 ARE EQUILIBRIUM ITERATIONS.


                              INCREMENT NUMBER   209
                              FREQUENCY            358.    


 ITERATION SUMMARY FOR THE INCREMENT:   0 TOTAL ITERATIONS, OF WHICH
   0 ARE SEVERE DISCONTINUITY ITERATIONS AND  0 ARE EQUILIBRIUM ITERATIONS.


                              INCREMENT NUMBER   210
                              FREQUENCY            360.    


 ITERATION SUMMARY FOR THE INCREMENT:   0 TOTAL ITERATIONS, OF WHICH
   0 ARE SEVERE DISCONTINUITY ITERATIONS AND  0 ARE EQUILIBRIUM ITERATIONS.


                              INCREMENT NUMBER   211
                              FREQUENCY            362.    


 ITERATION SUMMARY FOR THE INCREMENT:   0 TOTAL ITERATIONS, OF WHICH
   0 ARE SEVERE DISCONTINUITY ITERATIONS AND  0 ARE EQUILIBRIUM ITERATIONS.


                              INCREMENT NUMBER   212
                              FREQUENCY            363.    


 ITERATION SUMMARY FOR THE INCREMENT:   0 TOTAL ITERATIONS, OF WHICH
   0 ARE SEVERE DISCONTINUITY ITERATIONS AND  0 ARE EQUILIBRIUM ITERATIONS.


                              INCREMENT NUMBER   213
                              FREQUENCY            365.    


 ITERATION SUMMARY FOR THE INCREMENT:   0 TOTAL ITERATIONS, OF WHICH
   0 ARE SEVERE DISCONTINUITY ITERATIONS AND  0 ARE EQUILIBRIUM ITERATIONS.


                              INCREMENT NUMBER   214
                              FREQUENCY            367.    


 ITERATION SUMMARY FOR THE INCREMENT:   0 TOTAL ITERATIONS, OF WHICH
   0 ARE SEVERE DISCONTINUITY ITERATIONS AND  0 ARE EQUILIBRIUM ITERATIONS.


                              INCREMENT NUMBER   215
                              FREQUENCY            367.    


 ITERATION SUMMARY FOR THE INCREMENT:   0 TOTAL ITERATIONS, OF WHICH
   0 ARE SEVERE DISCONTINUITY ITERATIONS AND  0 ARE EQUILIBRIUM ITERATIONS.


                              INCREMENT NUMBER   216
                              FREQUENCY            367.    


 ITERATION SUMMARY FOR THE INCREMENT:   0 TOTAL ITERATIONS, OF WHICH
   0 ARE SEVERE DISCONTINUITY ITERATIONS AND  0 ARE EQUILIBRIUM ITERATIONS.


                              INCREMENT NUMBER   217
                              FREQUENCY            367.    


 ITERATION SUMMARY FOR THE INCREMENT:   0 TOTAL ITERATIONS, OF WHICH
   0 ARE SEVERE DISCONTINUITY ITERATIONS AND  0 ARE EQUILIBRIUM ITERATIONS.


                              INCREMENT NUMBER   218
                              FREQUENCY            367.    


 ITERATION SUMMARY FOR THE INCREMENT:   0 TOTAL ITERATIONS, OF WHICH
   0 ARE SEVERE DISCONTINUITY ITERATIONS AND  0 ARE EQUILIBRIUM ITERATIONS.


                              INCREMENT NUMBER   219
                              FREQUENCY            367.    


 ITERATION SUMMARY FOR THE INCREMENT:   0 TOTAL ITERATIONS, OF WHICH
   0 ARE SEVERE DISCONTINUITY ITERATIONS AND  0 ARE EQUILIBRIUM ITERATIONS.


                              INCREMENT NUMBER   220
                              FREQUENCY            367.    


 ITERATION SUMMARY FOR THE INCREMENT:   0 TOTAL ITERATIONS, OF WHICH
   0 ARE SEVERE DISCONTINUITY ITERATIONS AND  0 ARE EQUILIBRIUM ITERATIONS.


                              INCREMENT NUMBER   221
                              FREQUENCY            367.    


 ITERATION SUMMARY FOR THE INCREMENT:   0 TOTAL ITERATIONS, OF WHICH
   0 ARE SEVERE DISCONTINUITY ITERATIONS AND  0 ARE EQUILIBRIUM ITERATIONS.


                              INCREMENT NUMBER   222
                              FREQUENCY            368.    


 ITERATION SUMMARY FOR THE INCREMENT:   0 TOTAL ITERATIONS, OF WHICH
   0 ARE SEVERE DISCONTINUITY ITERATIONS AND  0 ARE EQUILIBRIUM ITERATIONS.


                              INCREMENT NUMBER   223
                              FREQUENCY            368.    


 ITERATION SUMMARY FOR THE INCREMENT:   0 TOTAL ITERATIONS, OF WHICH
   0 ARE SEVERE DISCONTINUITY ITERATIONS AND  0 ARE EQUILIBRIUM ITERATIONS.


                              INCREMENT NUMBER   224
                              FREQUENCY            368.    


 ITERATION SUMMARY FOR THE INCREMENT:   0 TOTAL ITERATIONS, OF WHICH
   0 ARE SEVERE DISCONTINUITY ITERATIONS AND  0 ARE EQUILIBRIUM ITERATIONS.


                              INCREMENT NUMBER   225
                              FREQUENCY            368.    


 ITERATION SUMMARY FOR THE INCREMENT:   0 TOTAL ITERATIONS, OF WHICH
   0 ARE SEVERE DISCONTINUITY ITERATIONS AND  0 ARE EQUILIBRIUM ITERATIONS.


                              INCREMENT NUMBER   226
                              FREQUENCY            368.    


 ITERATION SUMMARY FOR THE INCREMENT:   0 TOTAL ITERATIONS, OF WHICH
   0 ARE SEVERE DISCONTINUITY ITERATIONS AND  0 ARE EQUILIBRIUM ITERATIONS.


                              INCREMENT NUMBER   227
                              FREQUENCY            368.    


 ITERATION SUMMARY FOR THE INCREMENT:   0 TOTAL ITERATIONS, OF WHICH
   0 ARE SEVERE DISCONTINUITY ITERATIONS AND  0 ARE EQUILIBRIUM ITERATIONS.


                              INCREMENT NUMBER   228
                              FREQUENCY            368.    


 ITERATION SUMMARY FOR THE INCREMENT:   0 TOTAL ITERATIONS, OF WHICH
   0 ARE SEVERE DISCONTINUITY ITERATIONS AND  0 ARE EQUILIBRIUM ITERATIONS.


                              INCREMENT NUMBER   229
                              FREQUENCY            368.    


 ITERATION SUMMARY FOR THE INCREMENT:   0 TOTAL ITERATIONS, OF WHICH
   0 ARE SEVERE DISCONTINUITY ITERATIONS AND  0 ARE EQUILIBRIUM ITERATIONS.


                              INCREMENT NUMBER   230
                              FREQUENCY            368.    


 ITERATION SUMMARY FOR THE INCREMENT:   0 TOTAL ITERATIONS, OF WHICH
   0 ARE SEVERE DISCONTINUITY ITERATIONS AND  0 ARE EQUILIBRIUM ITERATIONS.


                              INCREMENT NUMBER   231
                              FREQUENCY            369.    


 ITERATION SUMMARY FOR THE INCREMENT:   0 TOTAL ITERATIONS, OF WHICH
   0 ARE SEVERE DISCONTINUITY ITERATIONS AND  0 ARE EQUILIBRIUM ITERATIONS.


                              INCREMENT NUMBER   232
                              FREQUENCY            369.    


 ITERATION SUMMARY FOR THE INCREMENT:   0 TOTAL ITERATIONS, OF WHICH
   0 ARE SEVERE DISCONTINUITY ITERATIONS AND  0 ARE EQUILIBRIUM ITERATIONS.


                              INCREMENT NUMBER   233
                              FREQUENCY            369.    


 ITERATION SUMMARY FOR THE INCREMENT:   0 TOTAL ITERATIONS, OF WHICH
   0 ARE SEVERE DISCONTINUITY ITERATIONS AND  0 ARE EQUILIBRIUM ITERATIONS.


                              INCREMENT NUMBER   234
                              FREQUENCY            372.    


 ITERATION SUMMARY FOR THE INCREMENT:   0 TOTAL ITERATIONS, OF WHICH
   0 ARE SEVERE DISCONTINUITY ITERATIONS AND  0 ARE EQUILIBRIUM ITERATIONS.


                              INCREMENT NUMBER   235
                              FREQUENCY            375.    


 ITERATION SUMMARY FOR THE INCREMENT:   0 TOTAL ITERATIONS, OF WHICH
   0 ARE SEVERE DISCONTINUITY ITERATIONS AND  0 ARE EQUILIBRIUM ITERATIONS.


                              INCREMENT NUMBER   236
                              FREQUENCY            378.    


 ITERATION SUMMARY FOR THE INCREMENT:   0 TOTAL ITERATIONS, OF WHICH
   0 ARE SEVERE DISCONTINUITY ITERATIONS AND  0 ARE EQUILIBRIUM ITERATIONS.


                              INCREMENT NUMBER   237
                              FREQUENCY            381.    


 ITERATION SUMMARY FOR THE INCREMENT:   0 TOTAL ITERATIONS, OF WHICH
   0 ARE SEVERE DISCONTINUITY ITERATIONS AND  0 ARE EQUILIBRIUM ITERATIONS.


                              INCREMENT NUMBER   238
                              FREQUENCY            384.    


 ITERATION SUMMARY FOR THE INCREMENT:   0 TOTAL ITERATIONS, OF WHICH
   0 ARE SEVERE DISCONTINUITY ITERATIONS AND  0 ARE EQUILIBRIUM ITERATIONS.


                              INCREMENT NUMBER   239
                              FREQUENCY            387.    


 ITERATION SUMMARY FOR THE INCREMENT:   0 TOTAL ITERATIONS, OF WHICH
   0 ARE SEVERE DISCONTINUITY ITERATIONS AND  0 ARE EQUILIBRIUM ITERATIONS.


                              INCREMENT NUMBER   240
                              FREQUENCY            390.    


 ITERATION SUMMARY FOR THE INCREMENT:   0 TOTAL ITERATIONS, OF WHICH
   0 ARE SEVERE DISCONTINUITY ITERATIONS AND  0 ARE EQUILIBRIUM ITERATIONS.


                              INCREMENT NUMBER   241
                              FREQUENCY            394.    


 ITERATION SUMMARY FOR THE INCREMENT:   0 TOTAL ITERATIONS, OF WHICH
   0 ARE SEVERE DISCONTINUITY ITERATIONS AND  0 ARE EQUILIBRIUM ITERATIONS.


                              INCREMENT NUMBER   242
                              FREQUENCY            397.    


 ITERATION SUMMARY FOR THE INCREMENT:   0 TOTAL ITERATIONS, OF WHICH
   0 ARE SEVERE DISCONTINUITY ITERATIONS AND  0 ARE EQUILIBRIUM ITERATIONS.


                              INCREMENT NUMBER   243
                              FREQUENCY            400.    


 ITERATION SUMMARY FOR THE INCREMENT:   0 TOTAL ITERATIONS, OF WHICH
   0 ARE SEVERE DISCONTINUITY ITERATIONS AND  0 ARE EQUILIBRIUM ITERATIONS.


                              INCREMENT NUMBER   244
                              FREQUENCY            403.    


 ITERATION SUMMARY FOR THE INCREMENT:   0 TOTAL ITERATIONS, OF WHICH
   0 ARE SEVERE DISCONTINUITY ITERATIONS AND  0 ARE EQUILIBRIUM ITERATIONS.


                              INCREMENT NUMBER   245
                              FREQUENCY            407.    


 ITERATION SUMMARY FOR THE INCREMENT:   0 TOTAL ITERATIONS, OF WHICH
   0 ARE SEVERE DISCONTINUITY ITERATIONS AND  0 ARE EQUILIBRIUM ITERATIONS.


                              INCREMENT NUMBER   246
                              FREQUENCY            410.    


 ITERATION SUMMARY FOR THE INCREMENT:   0 TOTAL ITERATIONS, OF WHICH
   0 ARE SEVERE DISCONTINUITY ITERATIONS AND  0 ARE EQUILIBRIUM ITERATIONS.


                              INCREMENT NUMBER   247
                              FREQUENCY            413.    


 ITERATION SUMMARY FOR THE INCREMENT:   0 TOTAL ITERATIONS, OF WHICH
   0 ARE SEVERE DISCONTINUITY ITERATIONS AND  0 ARE EQUILIBRIUM ITERATIONS.


                              INCREMENT NUMBER   248
                              FREQUENCY            417.    


 ITERATION SUMMARY FOR THE INCREMENT:   0 TOTAL ITERATIONS, OF WHICH
   0 ARE SEVERE DISCONTINUITY ITERATIONS AND  0 ARE EQUILIBRIUM ITERATIONS.


                              INCREMENT NUMBER   249
                              FREQUENCY            420.    


 ITERATION SUMMARY FOR THE INCREMENT:   0 TOTAL ITERATIONS, OF WHICH
   0 ARE SEVERE DISCONTINUITY ITERATIONS AND  0 ARE EQUILIBRIUM ITERATIONS.


                              INCREMENT NUMBER   250
                              FREQUENCY            423.    


 ITERATION SUMMARY FOR THE INCREMENT:   0 TOTAL ITERATIONS, OF WHICH
   0 ARE SEVERE DISCONTINUITY ITERATIONS AND  0 ARE EQUILIBRIUM ITERATIONS.


                              INCREMENT NUMBER   251
                              FREQUENCY            427.    


 ITERATION SUMMARY FOR THE INCREMENT:   0 TOTAL ITERATIONS, OF WHICH
   0 ARE SEVERE DISCONTINUITY ITERATIONS AND  0 ARE EQUILIBRIUM ITERATIONS.


                              INCREMENT NUMBER   252
                              FREQUENCY            430.    


 ITERATION SUMMARY FOR THE INCREMENT:   0 TOTAL ITERATIONS, OF WHICH
   0 ARE SEVERE DISCONTINUITY ITERATIONS AND  0 ARE EQUILIBRIUM ITERATIONS.


                              INCREMENT NUMBER   253
                              FREQUENCY            430.    


 ITERATION SUMMARY FOR THE INCREMENT:   0 TOTAL ITERATIONS, OF WHICH
   0 ARE SEVERE DISCONTINUITY ITERATIONS AND  0 ARE EQUILIBRIUM ITERATIONS.


                              INCREMENT NUMBER   254
                              FREQUENCY            430.    


 ITERATION SUMMARY FOR THE INCREMENT:   0 TOTAL ITERATIONS, OF WHICH
   0 ARE SEVERE DISCONTINUITY ITERATIONS AND  0 ARE EQUILIBRIUM ITERATIONS.


                              INCREMENT NUMBER   255
                              FREQUENCY            430.    


 ITERATION SUMMARY FOR THE INCREMENT:   0 TOTAL ITERATIONS, OF WHICH
   0 ARE SEVERE DISCONTINUITY ITERATIONS AND  0 ARE EQUILIBRIUM ITERATIONS.


                              INCREMENT NUMBER   256
                              FREQUENCY            430.    


 ITERATION SUMMARY FOR THE INCREMENT:   0 TOTAL ITERATIONS, OF WHICH
   0 ARE SEVERE DISCONTINUITY ITERATIONS AND  0 ARE EQUILIBRIUM ITERATIONS.


                              INCREMENT NUMBER   257
                              FREQUENCY            430.    


 ITERATION SUMMARY FOR THE INCREMENT:   0 TOTAL ITERATIONS, OF WHICH
   0 ARE SEVERE DISCONTINUITY ITERATIONS AND  0 ARE EQUILIBRIUM ITERATIONS.


                              INCREMENT NUMBER   258
                              FREQUENCY            430.    


 ITERATION SUMMARY FOR THE INCREMENT:   0 TOTAL ITERATIONS, OF WHICH
   0 ARE SEVERE DISCONTINUITY ITERATIONS AND  0 ARE EQUILIBRIUM ITERATIONS.


                              INCREMENT NUMBER   259
                              FREQUENCY            430.    


 ITERATION SUMMARY FOR THE INCREMENT:   0 TOTAL ITERATIONS, OF WHICH
   0 ARE SEVERE DISCONTINUITY ITERATIONS AND  0 ARE EQUILIBRIUM ITERATIONS.


                              INCREMENT NUMBER   260
                              FREQUENCY            430.    


 ITERATION SUMMARY FOR THE INCREMENT:   0 TOTAL ITERATIONS, OF WHICH
   0 ARE SEVERE DISCONTINUITY ITERATIONS AND  0 ARE EQUILIBRIUM ITERATIONS.


                              INCREMENT NUMBER   261
                              FREQUENCY            430.    


 ITERATION SUMMARY FOR THE INCREMENT:   0 TOTAL ITERATIONS, OF WHICH
   0 ARE SEVERE DISCONTINUITY ITERATIONS AND  0 ARE EQUILIBRIUM ITERATIONS.


                              INCREMENT NUMBER   262
                              FREQUENCY            430.    


 ITERATION SUMMARY FOR THE INCREMENT:   0 TOTAL ITERATIONS, OF WHICH
   0 ARE SEVERE DISCONTINUITY ITERATIONS AND  0 ARE EQUILIBRIUM ITERATIONS.


                              INCREMENT NUMBER   263
                              FREQUENCY            430.    


 ITERATION SUMMARY FOR THE INCREMENT:   0 TOTAL ITERATIONS, OF WHICH
   0 ARE SEVERE DISCONTINUITY ITERATIONS AND  0 ARE EQUILIBRIUM ITERATIONS.


                              INCREMENT NUMBER   264
                              FREQUENCY            430.    


 ITERATION SUMMARY FOR THE INCREMENT:   0 TOTAL ITERATIONS, OF WHICH
   0 ARE SEVERE DISCONTINUITY ITERATIONS AND  0 ARE EQUILIBRIUM ITERATIONS.


                              INCREMENT NUMBER   265
                              FREQUENCY            430.    


 ITERATION SUMMARY FOR THE INCREMENT:   0 TOTAL ITERATIONS, OF WHICH
   0 ARE SEVERE DISCONTINUITY ITERATIONS AND  0 ARE EQUILIBRIUM ITERATIONS.


                              INCREMENT NUMBER   266
                              FREQUENCY            430.    


 ITERATION SUMMARY FOR THE INCREMENT:   0 TOTAL ITERATIONS, OF WHICH
   0 ARE SEVERE DISCONTINUITY ITERATIONS AND  0 ARE EQUILIBRIUM ITERATIONS.


                              INCREMENT NUMBER   267
                              FREQUENCY            430.    


 ITERATION SUMMARY FOR THE INCREMENT:   0 TOTAL ITERATIONS, OF WHICH
   0 ARE SEVERE DISCONTINUITY ITERATIONS AND  0 ARE EQUILIBRIUM ITERATIONS.


                              INCREMENT NUMBER   268
                              FREQUENCY            430.    


 ITERATION SUMMARY FOR THE INCREMENT:   0 TOTAL ITERATIONS, OF WHICH
   0 ARE SEVERE DISCONTINUITY ITERATIONS AND  0 ARE EQUILIBRIUM ITERATIONS.


                              INCREMENT NUMBER   269
                              FREQUENCY            430.    


 ITERATION SUMMARY FOR THE INCREMENT:   0 TOTAL ITERATIONS, OF WHICH
   0 ARE SEVERE DISCONTINUITY ITERATIONS AND  0 ARE EQUILIBRIUM ITERATIONS.


                              INCREMENT NUMBER   270
                              FREQUENCY            430.    


 ITERATION SUMMARY FOR THE INCREMENT:   0 TOTAL ITERATIONS, OF WHICH
   0 ARE SEVERE DISCONTINUITY ITERATIONS AND  0 ARE EQUILIBRIUM ITERATIONS.


                              INCREMENT NUMBER   271
                              FREQUENCY            430.    


 ITERATION SUMMARY FOR THE INCREMENT:   0 TOTAL ITERATIONS, OF WHICH
   0 ARE SEVERE DISCONTINUITY ITERATIONS AND  0 ARE EQUILIBRIUM ITERATIONS.


                              INCREMENT NUMBER   272
                              FREQUENCY            434.    


 ITERATION SUMMARY FOR THE INCREMENT:   0 TOTAL ITERATIONS, OF WHICH
   0 ARE SEVERE DISCONTINUITY ITERATIONS AND  0 ARE EQUILIBRIUM ITERATIONS.


                              INCREMENT NUMBER   273
                              FREQUENCY            437.    


 ITERATION SUMMARY FOR THE INCREMENT:   0 TOTAL ITERATIONS, OF WHICH
   0 ARE SEVERE DISCONTINUITY ITERATIONS AND  0 ARE EQUILIBRIUM ITERATIONS.


                              INCREMENT NUMBER   274
                              FREQUENCY            441.    


 ITERATION SUMMARY FOR THE INCREMENT:   0 TOTAL ITERATIONS, OF WHICH
   0 ARE SEVERE DISCONTINUITY ITERATIONS AND  0 ARE EQUILIBRIUM ITERATIONS.


                              INCREMENT NUMBER   275
                              FREQUENCY            444.    


 ITERATION SUMMARY FOR THE INCREMENT:   0 TOTAL ITERATIONS, OF WHICH
   0 ARE SEVERE DISCONTINUITY ITERATIONS AND  0 ARE EQUILIBRIUM ITERATIONS.


                              INCREMENT NUMBER   276
                              FREQUENCY            448.    


 ITERATION SUMMARY FOR THE INCREMENT:   0 TOTAL ITERATIONS, OF WHICH
   0 ARE SEVERE DISCONTINUITY ITERATIONS AND  0 ARE EQUILIBRIUM ITERATIONS.


                              INCREMENT NUMBER   277
                              FREQUENCY            451.    


 ITERATION SUMMARY FOR THE INCREMENT:   0 TOTAL ITERATIONS, OF WHICH
   0 ARE SEVERE DISCONTINUITY ITERATIONS AND  0 ARE EQUILIBRIUM ITERATIONS.


                              INCREMENT NUMBER   278
                              FREQUENCY            455.    


 ITERATION SUMMARY FOR THE INCREMENT:   0 TOTAL ITERATIONS, OF WHICH
   0 ARE SEVERE DISCONTINUITY ITERATIONS AND  0 ARE EQUILIBRIUM ITERATIONS.


                              INCREMENT NUMBER   279
                              FREQUENCY            458.    


 ITERATION SUMMARY FOR THE INCREMENT:   0 TOTAL ITERATIONS, OF WHICH
   0 ARE SEVERE DISCONTINUITY ITERATIONS AND  0 ARE EQUILIBRIUM ITERATIONS.


                              INCREMENT NUMBER   280
                              FREQUENCY            462.    


 ITERATION SUMMARY FOR THE INCREMENT:   0 TOTAL ITERATIONS, OF WHICH
   0 ARE SEVERE DISCONTINUITY ITERATIONS AND  0 ARE EQUILIBRIUM ITERATIONS.


                              INCREMENT NUMBER   281
                              FREQUENCY            466.    


 ITERATION SUMMARY FOR THE INCREMENT:   0 TOTAL ITERATIONS, OF WHICH
   0 ARE SEVERE DISCONTINUITY ITERATIONS AND  0 ARE EQUILIBRIUM ITERATIONS.


                              INCREMENT NUMBER   282
                              FREQUENCY            469.    


 ITERATION SUMMARY FOR THE INCREMENT:   0 TOTAL ITERATIONS, OF WHICH
   0 ARE SEVERE DISCONTINUITY ITERATIONS AND  0 ARE EQUILIBRIUM ITERATIONS.


                              INCREMENT NUMBER   283
                              FREQUENCY            473.    


 ITERATION SUMMARY FOR THE INCREMENT:   0 TOTAL ITERATIONS, OF WHICH
   0 ARE SEVERE DISCONTINUITY ITERATIONS AND  0 ARE EQUILIBRIUM ITERATIONS.


                              INCREMENT NUMBER   284
                              FREQUENCY            477.    


 ITERATION SUMMARY FOR THE INCREMENT:   0 TOTAL ITERATIONS, OF WHICH
   0 ARE SEVERE DISCONTINUITY ITERATIONS AND  0 ARE EQUILIBRIUM ITERATIONS.


                              INCREMENT NUMBER   285
                              FREQUENCY            481.    


 ITERATION SUMMARY FOR THE INCREMENT:   0 TOTAL ITERATIONS, OF WHICH
   0 ARE SEVERE DISCONTINUITY ITERATIONS AND  0 ARE EQUILIBRIUM ITERATIONS.


                              INCREMENT NUMBER   286
                              FREQUENCY            484.    


 ITERATION SUMMARY FOR THE INCREMENT:   0 TOTAL ITERATIONS, OF WHICH
   0 ARE SEVERE DISCONTINUITY ITERATIONS AND  0 ARE EQUILIBRIUM ITERATIONS.


                              INCREMENT NUMBER   287
                              FREQUENCY            488.    


 ITERATION SUMMARY FOR THE INCREMENT:   0 TOTAL ITERATIONS, OF WHICH
   0 ARE SEVERE DISCONTINUITY ITERATIONS AND  0 ARE EQUILIBRIUM ITERATIONS.


                              INCREMENT NUMBER   288
                              FREQUENCY            492.    


 ITERATION SUMMARY FOR THE INCREMENT:   0 TOTAL ITERATIONS, OF WHICH
   0 ARE SEVERE DISCONTINUITY ITERATIONS AND  0 ARE EQUILIBRIUM ITERATIONS.


                              INCREMENT NUMBER   289
                              FREQUENCY            496.    


 ITERATION SUMMARY FOR THE INCREMENT:   0 TOTAL ITERATIONS, OF WHICH
   0 ARE SEVERE DISCONTINUITY ITERATIONS AND  0 ARE EQUILIBRIUM ITERATIONS.


                              INCREMENT NUMBER   290
                              FREQUENCY            500.    


 ITERATION SUMMARY FOR THE INCREMENT:   0 TOTAL ITERATIONS, OF WHICH
   0 ARE SEVERE DISCONTINUITY ITERATIONS AND  0 ARE EQUILIBRIUM ITERATIONS.


          THE ANALYSIS HAS BEEN COMPLETED



     ANALYSIS SUMMARY:
     TOTAL OF        291  INCREMENTS
                       0  CUTBACKS IN AUTOMATIC INCREMENTATION
                       0  ITERATIONS INCLUDING CONTACT ITERATIONS IF PRESENT
                      14  PASSES THROUGH THE EQUATION SOLVER OF WHICH 
                       2  INVOLVE MATRIX DECOMPOSITION, INCLUDING
                       0  DECOMPOSITION(S) OF THE MASS MATRIX
                       1  REORDERING OF EQUATIONS TO MINIMIZE WAVEFRONT
                       0  ADDITIONAL RESIDUAL EVALUATIONS FOR LINE SEARCHES
                       0  ADDITIONAL OPERATOR EVALUATIONS FOR LINE SEARCHES
                       2  WARNING MESSAGES DURING USER INPUT PROCESSING
                      51  WARNING MESSAGES DURING ANALYSIS
                       0  ANALYSIS WARNINGS ARE NUMERICAL PROBLEM MESSAGES
                       0  ANALYSIS WARNINGS ARE NEGATIVE EIGENVALUE MESSAGES
                       0  ERROR MESSAGES



     JOB TIME SUMMARY
       USER TIME (SEC)      =   50.100    
       SYSTEM TIME (SEC)    =  0.80000    
       TOTAL CPU TIME (SEC) =   50.900    
       WALLCLOCK TIME (SEC) =         51
