1

   Abaqus 6.14-1                                  Date 06-Feb-2016   Time 15:27:01
   For use by Supplied By SSQ under license from Dassault Systemes or its subsidiary.



                         The Abaqus Software is a product of:

                           Dassault Systemes Simulia Corp.
                                 Rising Sun Mills
                                 166 Valley Street
                           Providence, RI 02909-2499, USA
 


                   The Abaqus Software is available only under license
                   from Dassault Systemes or its subsidiary and may be
                   used or reproduced only in accordance with the terms
                   of such license.
 
                          On machine DESKTOP-5UE3P8V 
                          you are authorized to run
                          Abaqus/Foundation until 31-Dec-2055

                          Your site id is:  


 
                    For assistance or any other information you may
                    obtain contact information for your local office
                    from the world wide web at:

                      http://www.3ds.com/products/simulia/locations/

 
                * * * * * * * * * * * * * * * * * * * * * * * * * * * * * * 
                *                                                         * 
                *                   *****************                     * 
                *                   *  N O T I C E  *                     * 
                *                   *****************                     * 
                *                                                         * 
                *                                                         * 
                *                    Abaqus 6.14-1                        * 
                *                                                         * 
                *          BUILD ID: 2014_06_04-18.11.02 134264           * 
                *                                                         * 
                *                                                         * 
                *  Please make sure you are using release 6.14 manuals    * 
                *  plus the notes accompanying this release.              * 
                *                                                         * 
                *                                                         * 
                *                                                         * 
                *                                                         * 
                * * * * * * * * * * * * * * * * * * * * * * * * * * * * * * 


 



     PROCESSING PART, INSTANCE, AND ASSEMBLY INFORMATION
   *******************************************************


     END PROCESSING PART, INSTANCE, AND ASSEMBLY INFORMATION
   ***********************************************************




     OPTIONS BEING PROCESSED
   ***************************


  *HEADING
          FIVE SPAN CONTINUOUS BEAM UNDER JET NOISE                                                                                                                                                                                                                       
  *NODE
  *NGEN
  *ELEMENT,TYPE=B23
  *ELGEN,ELSET=ALL
  *NSET,NSET=SUPP,GENERATE
  *NSET,NSET=ALL,GENERATE
  *NSET,NSET=N2
  *BEAM GENERAL SECTION,SECTION=GENERAL,DENSITY=0.0001,ELSET=ALL
  *BOUNDARY
  *BEAM GENERAL SECTION,SECTION=GENERAL,DENSITY=0.0001,ELSET=ALL
  *OUTPUT,FIELD
  *OUTPUT,HISTORY
  *OUTPUT,FIELD
  *OUTPUT,HISTORY
  *OUTPUT,FIELD,Frequency=1
  *OUTPUT,HISTORY,Frequency=1
  *OUTPUT,FIELD
  *OUTPUT,HISTORY
  *OUTPUT,FIELD
  *OUTPUT,HISTORY
  *OUTPUT,FIELD,Frequency=1
  *OUTPUT,HISTORY,Frequency=1
  *OUTPUT,FIELD
  *OUTPUT,HISTORY
  *OUTPUT,FIELD
  *OUTPUT,HISTORY
  *OUTPUT,FIELD,Frequency=1
  *OUTPUT,HISTORY,Frequency=1
  *PSD-DEFINITION,NAME=PSD
  *STEP
  *FREQUENCY, eigensolver=lanczos
  *STEP
  *STEP
  *STEP
  *STEP
  *FREQUENCY, eigensolver=lanczos
  *FREQUENCY, eigensolver=lanczos
  *EL PRINT,FREQUENCY=0
  *NODE PRINT,FREQUENCY=0
  *MODAL FILE
  *OUTPUT,FIELD
  *OUTPUT,HISTORY
  *MODAL OUTPUT,VARIABLE=ALL
  *END STEP
  *STEP
  *modal damping, modal=direct
  *select eigenmodes, generate
  *EL PRINT,FREQUENCY=80
  *NODE PRINT,NSET=N2,SUMMARY=NO,FREQUENCY=4
  *NODE PRINT,FREQUENCY=80
  *MODAL PRINT,FREQUENCY=20
  *MODAL FILE
  *NODE FILE,FREQUENCY=1,NSET=ALL
  *OUTPUT,FIELD

 ***WARNING: *MODAL OUTPUT IS NOT AVAILABLE AS FIELD OUTPUT
  *OUTPUT,HISTORY
  *MODAL OUTPUT,VARIABLE=ALL

 ***WARNING: DATACARDS ARE IGNORED IF VARIABLE=ALL HAS BEEN USED
 LINE IMAGE: GU,
  *OUTPUT,FIELD,Frequency=1
  *NODE OUTPUT,NSET=ALL
  *OUTPUT,HISTORY,Frequency=1
  *NODE OUTPUT,NSET=ALL
  *END STEP
  *BOUNDARY
  *STEP
  *FREQUENCY, eigensolver=lanczos
  *FREQUENCY, eigensolver=lanczos
  *END STEP
  *STEP
  *RANDOM RESPONSE
  *modal damping, modal=direct
  *select eigenmodes, generate
  *CLOAD, LOAD CASE=1
  *CORRELATION,TYPE=MOVING NOISE
  *END STEP

 ***WARNING: IN THE MODAL PROCEDURES NOT USING SIM ARCHITECTURE, THE REACTION 
             FORCE CALCULATION IS BASED ON MODAL REACTION FORCES EXTRACTED IN 
             FREQUENCY ANALYSIS PROCEDURE. THIS APPROACH DOES NOT TAKE INTO 
             ACCOUNT NON-DIAGONAL MASS MATRIX AND DAMPING MATRIX CONTRIBUTIONS 
             TO THE REACTION FORCES (AS IN THE CASE OF STRUCTURAL ELEMENTS OR 
             SUBSTRUCTURES,ETC.). THEREFORE, IT MAY GIVE RISE TO INCORRECT 
             REACTION FORCE RESULTS. IT IS RECOMMENDED USING THE STEADY STATE 
             DYNAMICS OR TRANSIENT MODAL PROCEDURES BASED ON SIM ARCHITECTURE.



                            P R O B L E M   S I Z E


          NUMBER OF ELEMENTS IS                                    20
          NUMBER OF NODES IS                                       41
          NUMBER OF NODES DEFINED BY THE USER                      21
          NUMBER OF INTERNAL NODES GENERATED BY THE PROGRAM        20
          TOTAL NUMBER OF VARIABLES IN THE MODEL                  103
          (DEGREES OF FREEDOM PLUS MAX NO. OF ANY LAGRANGE MULTIPLIER
           VARIABLES. INCLUDE *PRINT,SOLVE=YES TO GET THE ACTUAL NUMBER.)



                              END OF USER INPUT PROCESSING



     JOB TIME SUMMARY
       USER TIME (SEC)      =  0.10000    
       SYSTEM TIME (SEC)    =  0.10000    
       TOTAL CPU TIME (SEC) =  0.20000    
       WALLCLOCK TIME (SEC) =          1
1

   Abaqus 6.14-1                                  Date 06-Feb-2016   Time 15:27:05
   For use by Supplied By SSQ under license from Dassault Systemes or its subsidiary.

     FIVE SPAN CONTINUOUS BEAM UNDER JET NOISE                                                 STEP    1  INCREMENT    1
                                                                                          TIME COMPLETED IN THIS STEP   0.00    


                        S T E P       1     C A L C U L A T I O N   O F   E I G E N V A L U E S

                                            F O R   N A T U R A L   F R E Q U E N C I E S



                                                                                          

     THE LANCZOS EIGENSOLVER IS USED FOR THIS ANALYSIS
     Abaqus WILL COMPUTE UNCOUPLED
      STRUCTURAL AND ACOUSTIC MODES
     NUMBER OF EIGENVALUES                     20
     HIGHEST FREQUENCY OF INTEREST                  1.00000E+18
     MAXIMUM NUMBER OF STEPS WITHIN RUN               35
     BLOCK SIZE FOR LANCZOS PROCEDURE                  7
     THE EIGENVECTORS ARE SCALED SO THAT 
      THE LARGEST DISPLACEMENT ENTRY IN EACH VECTOR
      IS UNITY

     THIS IS A LINEAR PERTURBATION STEP.
     ALL LOADS ARE DEFINED AS CHANGE IN LOAD TO THE REFERENCE STATE



                    TOTAL MASS OF MODEL

                       5.000000    


                    LOCATION OF THE CENTER OF MASS OF THE MODEL

                       2.500000           0.000000    


                    MOMENT OF INERTIA ABOUT THE ORIGIN
                           I(ZZ)

                       41.66667    


                    PRODUCT OF INERTIA ABOUT THE ORIGIN
                           I(XY)

                       0.000000    


                    MOMENT OF INERTIA ABOUT THE CENTER OF MASS
                           I(ZZ)

                       10.41667    


                    PRODUCT OF INERTIA ABOUT THE CENTER OF MASS
                           I(XY)

                       0.000000    
  
                   M E M O R Y   E S T I M A T E
  
 PROCESS      FLOATING PT       MINIMUM MEMORY        MEMORY TO
              OPERATIONS           REQUIRED          MINIMIZE I/O
             PER ITERATION           (MB)               (MB)
  
     1         5.10E+003               19                 25
  
 NOTE:
      (1) SINCE ABAQUS DOES NOT PRE-ALLOCATE MEMORY AND ONLY ALLOCATES MEMORY AS NEEDED DURING THE ANALYSIS,
          THE MEMORY REQUIREMENT PRINTED HERE CAN ONLY BE VIEWED AS A GENERAL GUIDELINE BASED ON THE BEST
          KNOWLEDGE AVAILABLE AT THE BEGINNING OF A STEP BEFORE THE SOLUTION PROCESS HAS BEGUN.
      (2) THE ESTIMATE IS NORMALLY UPDATED AT THE BEGINNING OF EVERY STEP. IT IS THE MAXIMUM VALUE OF THE
          ESTIMATE FROM THE CURRENT STEP TO THE LAST STEP OF THE ANALYSIS, WITH UNSYMMETRIC SOLUTION TAKEN
          INTO ACCOUNT IF APPLICABLE. 
      (3) SINCE THE ESTIMATE IS BASED ON THE ACTIVE DEGREES OF FREEDOM IN THE FIRST ITERATION OF THE 
          CURRENT STEP, THE MEMORY ESTIMATE MIGHT BE SIGNIFICANTLY DIFFERENT THAN ACTUAL USAGE FOR 
          PROBLEMS WITH SUBSTANTIAL CHANGES IN ACTIVE DEGREES OF FREEDOM BETWEEN STEPS (OR EVEN WITHIN
          THE SAME STEP). EXAMPLES ARE: PROBLEMS WITH SIGNIFICANT CONTACT CHANGES, PROBLEMS WITH MODEL
          CHANGE, PROBLEMS WITH BOTH STATIC STEP AND STEADY STATE DYNAMIC PROCEDURES WHERE ACOUSTIC 
          ELEMENTS WILL ONLY BE ACTIVATED IN THE STEADY STATE DYNAMIC STEPS.
      (4) FOR MULTI-PROCESS EXECUTION, THE ESTIMATED VALUE OF FLOATING POINT OPERATIONS FOR EACH PROCESS
          IS BASED ON AN INITIAL SCHEDULING OF OPERATIONS AND MIGHT NOT REFLECT THE ACTUAL FLOATING 
          POINT OPERATIONS COMPLETED ON EACH PROCESS. OPERATIONS ARE DYNAMICALLY BALANCED DURING EXECUTION, 
          SO THE ACTUAL BALANCE OF OPERATIONS BETWEEN PROCESSES IS EXPECTED TO BE BETTER THAN THE ESTIMATE
          PRINTED HERE.
      (5) THE UPPER LIMIT OF MEMORY THAT CAN BE ALLOCATED BY ABAQUS WILL IN GENERAL DEPEND ON THE VALUE OF
          THE "MEMORY" PARAMETER AND THE AMOUNT OF PHYSICAL MEMORY AVAILABLE ON THE MACHINE. PLEASE SEE
          THE "ABAQUS ANALYSIS USER'S MANUAL" FOR MORE DETAILS. THE ACTUAL USAGE OF MEMORY AND OF DISK
          SPACE FOR SCRATCH DATA WILL DEPEND ON THIS UPPER LIMIT AS WELL AS THE MEMORY REQUIRED TO MINIMIZE
          I/O. IF THE MEMORY UPPER LIMIT IS GREATER THAN THE MEMORY REQUIRED TO MINIMIZE I/O, THEN THE ACTUAL
          MEMORY USAGE WILL BE CLOSE TO THE ESTIMATED "MEMORY TO MINIMIZE I/O" VALUE, AND THE SCRATCH DISK
          USAGE WILL BE CLOSE-TO-ZERO; OTHERWISE, THE ACTUAL MEMORY USED WILL BE CLOSE TO THE PREVIOUSLY
          MENTIONED MEMORY LIMIT, AND THE SCRATCH DISK USAGE WILL BE ROUGHLY PROPORTIONAL TO THE DIFFERENCE
          BETWEEN THE ESTIMATED "MEMORY TO MINIMIZE I/O" AND THE MEMORY UPPER LIMIT. HOWEVER ACCURATE
          ESTIMATE OF THE SCRATCH DISK SPACE IS NOT POSSIBLE.
      (6) USING "*RESTART, WRITE" CAN GENERATE A LARGE AMOUNT OF DATA WRITTEN IN THE WORK DIRECTORY.


                              E I G E N V A L U E    O U T P U T     

 MODE NO      EIGENVALUE              FREQUENCY         GENERALIZED MASS   COMPOSITE MODAL DAMPING            
                             (RAD/TIME)   (CYCLES/TIME)


       1       97.460         9.8722         1.5712         2.4974         0.0000    
       2       119.98         10.953         1.7433         1.3732         0.0000    
       3       187.68         13.700         2.1804         1.2175         0.0000    
       4       297.93         17.261         2.7471         1.2838         0.0000    
       5       429.75         20.730         3.2994         1.0606         0.0000    
       6       1571.1         39.637         6.3084         2.4605         0.0000    
       7       1757.2         41.918         6.6715         1.3748         0.0000    
       8       2224.9         47.169         7.5072         1.3141         0.0000    
       9       2863.3         53.510         8.5164         1.3911         0.0000    
      10       3535.6         59.461         9.4634         1.2161         0.0000    
      11       8192.7         90.513         14.406         2.3084         0.0000    
      12       8844.6         94.046         14.968         1.3666         0.0000    
      13       10420.         102.08         16.246         1.3231         0.0000    
      14       12443.         111.55         17.753         1.4469         0.0000    
      15       14419.         120.08         19.111         1.2111         0.0000    
      16       30720.         175.27         27.895        1.04167E-02     0.0000    
      17       32556.         180.43         28.717         17.204         0.0000    
      18       37238.         192.97         30.713         6.9291         0.0000    
      19       43707.         209.06         33.273         5.1885         0.0000    
      20       50952.         225.73         35.925         4.9042         0.0000    


          P A R T I C I P A T I O N   F A C T O R S

 MODE NO    X-COMPONENT    Y-COMPONENT    Z-COMPONENT    X-ROTATION     Y-ROTATION     Z-ROTATION 

       1      1.53620E-17    0.25478         0.0000         0.0000         0.0000        0.63694    
       2     -2.13175E-17    8.33784E-16     0.0000         0.0000         0.0000         1.2669    
       3     -1.23450E-17   -0.61845         0.0000         0.0000         0.0000        -1.5461    
       4     -1.03153E-16    2.67825E-15     0.0000         0.0000         0.0000        -2.0111    
       5      9.97605E-17     1.6504         0.0000         0.0000         0.0000         4.1261    
       6      4.95148E-17   -9.30656E-17     0.0000         0.0000         0.0000        0.32052    
       7     -1.22222E-16    0.18204         0.0000         0.0000         0.0000        0.45509    
       8     -2.52278E-16    2.11209E-15     0.0000         0.0000         0.0000       -0.24475    
       9      9.65486E-17   -3.77007E-02     0.0000         0.0000         0.0000       -9.42518E-02
      10     -4.80154E-16   -1.22673E-15     0.0000         0.0000         0.0000       -1.85265E-02
      11     -5.01763E-16   -8.70288E-02     0.0000         0.0000         0.0000       -0.21757    
      12     -6.03445E-16   -7.24070E-15     0.0000         0.0000         0.0000       -0.43146    
      13     -1.17213E-15    0.21741         0.0000         0.0000         0.0000        0.54353    
      14      4.42531E-17    1.20850E-15     0.0000         0.0000         0.0000        0.74727    
      15      2.20948E-15   -0.63978         0.0000         0.0000         0.0000        -1.5995    
      16      1.21412E-10    2.87699E-10     0.0000         0.0000         0.0000        -2.5000    
      17     -1.96893E-13    1.54762E-02     0.0000         0.0000         0.0000        3.86905E-02
      18      2.30891E-12    5.49340E-12     0.0000         0.0000         0.0000       -2.60668E-02
      19      5.15172E-11   -3.37025E-04     0.0000         0.0000         0.0000       -8.42563E-04
      20     -5.13074E-11   -1.23143E-10     0.0000         0.0000         0.0000       -1.64351E-02


                    E F F E C T I V E   M A S S

 MODE NO    X-COMPONENT    Y-COMPONENT    Z-COMPONENT    X-ROTATION     Y-ROTATION     Z-ROTATION 

       1      5.89366E-34    0.16211         0.0000         0.0000         0.0000         1.0132    
       2      6.24010E-34    9.54613E-31     0.0000         0.0000         0.0000         2.2040    
       3      1.85547E-34    0.46567         0.0000         0.0000         0.0000         2.9105    
       4      1.36600E-32    9.20841E-30     0.0000         0.0000         0.0000         5.1920    
       5      1.05549E-32     2.8889         0.0000         0.0000         0.0000         18.056    
       6      6.03233E-33    2.13105E-32     0.0000         0.0000         0.0000        0.25276    
       7      2.05364E-32    4.55563E-02     0.0000         0.0000         0.0000        0.28473    
       8      8.36364E-32    5.86223E-30     0.0000         0.0000         0.0000        7.87170E-02
       9      1.29673E-32    1.97723E-03     0.0000         0.0000         0.0000        1.23577E-02
      10      2.80376E-31    1.83011E-30     0.0000         0.0000         0.0000        4.17414E-04
      11      5.81179E-31    1.74839E-02     0.0000         0.0000         0.0000        0.10927    
      12      4.97628E-31    7.16458E-29     0.0000         0.0000         0.0000        0.25440    
      13      1.81776E-30    6.25388E-02     0.0000         0.0000         0.0000        0.39087    
      14      2.83355E-33    2.11319E-30     0.0000         0.0000         0.0000        0.80798    
      15      5.91240E-30    0.49574         0.0000         0.0000         0.0000         3.0984    
      16      1.53550E-22    8.62196E-22     0.0000         0.0000         0.0000        6.51042E-02
      17      6.66948E-25    4.12058E-03     0.0000         0.0000         0.0000        2.57536E-02
      18      3.69393E-23    2.09102E-22     0.0000         0.0000         0.0000        4.70814E-03
      19      1.37703E-20    5.89338E-07     0.0000         0.0000         0.0000        3.68336E-06
      20      1.29101E-20    7.43690E-20     0.0000         0.0000         0.0000        1.32468E-03

 TOTAL        2.68716E-20     4.1441         0.0000         0.0000         0.0000         34.762    
1

   Abaqus 6.14-1                                  Date 06-Feb-2016   Time 15:27:05
   For use by Supplied By SSQ under license from Dassault Systemes or its subsidiary.

     FIVE SPAN CONTINUOUS BEAM UNDER JET NOISE                                                 STEP    2  INCREMENT    1
                                                                                          TIME COMPLETED IN THIS STEP   0.00    


                        S T E P       2     R A N D O M    R E S P O N S E   A N A L Y S I S         


                                                                                          
          THE VARIANCE WILL BE COMPUTED NUMERICALLY  
          FREQUENCY RANGE DEFINITIONS (CYCLES/TIME)
                   LOW         HIGH     POINTS         BIAS   TYPE OF SCALING


                   0.100      20.0        20          3.00      LINEAR          

     THIS IS A LINEAR PERTURBATION STEP.
     ALL LOADS ARE DEFINED AS CHANGE IN LOAD TO THE REFERENCE STATE
  
                   M E M O R Y   E S T I M A T E
  
 PROCESS      FLOATING PT       MINIMUM MEMORY        MEMORY TO
              OPERATIONS           REQUIRED          MINIMIZE I/O
             PER ITERATION           (MB)               (MB)
  
     1         0.00E+000               16                 16
  
 NOTE:
      (1) SINCE ABAQUS DOES NOT PRE-ALLOCATE MEMORY AND ONLY ALLOCATES MEMORY AS NEEDED DURING THE ANALYSIS,
          THE MEMORY REQUIREMENT PRINTED HERE CAN ONLY BE VIEWED AS A GENERAL GUIDELINE BASED ON THE BEST
          KNOWLEDGE AVAILABLE AT THE BEGINNING OF A STEP BEFORE THE SOLUTION PROCESS HAS BEGUN.
      (2) THE ESTIMATE IS NORMALLY UPDATED AT THE BEGINNING OF EVERY STEP. IT IS THE MAXIMUM VALUE OF THE
          ESTIMATE FROM THE CURRENT STEP TO THE LAST STEP OF THE ANALYSIS, WITH UNSYMMETRIC SOLUTION TAKEN
          INTO ACCOUNT IF APPLICABLE. 
      (3) SINCE THE ESTIMATE IS BASED ON THE ACTIVE DEGREES OF FREEDOM IN THE FIRST ITERATION OF THE 
          CURRENT STEP, THE MEMORY ESTIMATE MIGHT BE SIGNIFICANTLY DIFFERENT THAN ACTUAL USAGE FOR 
          PROBLEMS WITH SUBSTANTIAL CHANGES IN ACTIVE DEGREES OF FREEDOM BETWEEN STEPS (OR EVEN WITHIN
          THE SAME STEP). EXAMPLES ARE: PROBLEMS WITH SIGNIFICANT CONTACT CHANGES, PROBLEMS WITH MODEL
          CHANGE, PROBLEMS WITH BOTH STATIC STEP AND STEADY STATE DYNAMIC PROCEDURES WHERE ACOUSTIC 
          ELEMENTS WILL ONLY BE ACTIVATED IN THE STEADY STATE DYNAMIC STEPS.
      (4) FOR MULTI-PROCESS EXECUTION, THE ESTIMATED VALUE OF FLOATING POINT OPERATIONS FOR EACH PROCESS
          IS BASED ON AN INITIAL SCHEDULING OF OPERATIONS AND MIGHT NOT REFLECT THE ACTUAL FLOATING 
          POINT OPERATIONS COMPLETED ON EACH PROCESS. OPERATIONS ARE DYNAMICALLY BALANCED DURING EXECUTION, 
          SO THE ACTUAL BALANCE OF OPERATIONS BETWEEN PROCESSES IS EXPECTED TO BE BETTER THAN THE ESTIMATE
          PRINTED HERE.
      (5) THE UPPER LIMIT OF MEMORY THAT CAN BE ALLOCATED BY ABAQUS WILL IN GENERAL DEPEND ON THE VALUE OF
          THE "MEMORY" PARAMETER AND THE AMOUNT OF PHYSICAL MEMORY AVAILABLE ON THE MACHINE. PLEASE SEE
          THE "ABAQUS ANALYSIS USER'S MANUAL" FOR MORE DETAILS. THE ACTUAL USAGE OF MEMORY AND OF DISK
          SPACE FOR SCRATCH DATA WILL DEPEND ON THIS UPPER LIMIT AS WELL AS THE MEMORY REQUIRED TO MINIMIZE
          I/O. IF THE MEMORY UPPER LIMIT IS GREATER THAN THE MEMORY REQUIRED TO MINIMIZE I/O, THEN THE ACTUAL
          MEMORY USAGE WILL BE CLOSE TO THE ESTIMATED "MEMORY TO MINIMIZE I/O" VALUE, AND THE SCRATCH DISK
          USAGE WILL BE CLOSE-TO-ZERO; OTHERWISE, THE ACTUAL MEMORY USED WILL BE CLOSE TO THE PREVIOUSLY
          MENTIONED MEMORY LIMIT, AND THE SCRATCH DISK USAGE WILL BE ROUGHLY PROPORTIONAL TO THE DIFFERENCE
          BETWEEN THE ESTIMATED "MEMORY TO MINIMIZE I/O" AND THE MEMORY UPPER LIMIT. HOWEVER ACCURATE
          ESTIMATE OF THE SCRATCH DISK SPACE IS NOT POSSIBLE.
      (6) USING "*RESTART, WRITE" CAN GENERATE A LARGE AMOUNT OF DATA WRITTEN IN THE WORK DIRECTORY.


                              INCREMENT NUMBER     1
                              FREQUENCY           0.100    



                              INCREMENT NUMBER     2
                              FREQUENCY           0.127    



                              INCREMENT NUMBER     3
                              FREQUENCY           0.156    



                              INCREMENT NUMBER     4
                              FREQUENCY           0.187    

  
  
  
  
                                       N O D E   O U T P U T
  
  
  
  
   THE FOLLOWING TABLE IS PRINTED FOR NODES BELONGING TO NODE SET N2
  
       NODE FOOT-   U2          UR3         V2          VR3         A2          AR3      
            NOTE
  
          2      1.5611E-04  1.2652E-03  2.1645E-04  1.7543E-03  3.0011E-04  2.4323E-03 


                              INCREMENT NUMBER     5
                              FREQUENCY           0.223    



                              INCREMENT NUMBER     6
                              FREQUENCY           0.262    



                              INCREMENT NUMBER     7
                              FREQUENCY           0.308    



                              INCREMENT NUMBER     8
                              FREQUENCY           0.364    

  
  
  
  
                                       N O D E   O U T P U T
  
  
  
  
   THE FOLLOWING TABLE IS PRINTED FOR NODES BELONGING TO NODE SET N2
  
       NODE FOOT-   U2          UR3         V2          VR3         A2          AR3      
            NOTE
  
          2      1.6581E-04  1.3502E-03  8.6831E-04  7.0707E-03  4.5472E-03  3.7028E-02 


                              INCREMENT NUMBER     9
                              FREQUENCY           0.438    



                              INCREMENT NUMBER    10
                              FREQUENCY           0.560    



                              INCREMENT NUMBER    11
                              FREQUENCY            1.11    



                              INCREMENT NUMBER    12
                              FREQUENCY            1.23    

  
  
  
  
                                       N O D E   O U T P U T
  
  
  
  
   THE FOLLOWING TABLE IS PRINTED FOR NODES BELONGING TO NODE SET N2
  
       NODE FOOT-   U2          UR3         V2          VR3         A2          AR3      
            NOTE
  
          2      6.7868E-04  6.0456E-03  4.0746E-02  0.3630       2.446       21.79     


                              INCREMENT NUMBER    13
                              FREQUENCY            1.31    



                              INCREMENT NUMBER    14
                              FREQUENCY            1.36    



                              INCREMENT NUMBER    15
                              FREQUENCY            1.41    



                              INCREMENT NUMBER    16
                              FREQUENCY            1.45    

  
  
  
  
                                       N O D E   O U T P U T
  
  
  
  
   THE FOLLOWING TABLE IS PRINTED FOR NODES BELONGING TO NODE SET N2
  
       NODE FOOT-   U2          UR3         V2          VR3         A2          AR3      
            NOTE
  
          2      2.5621E-03  2.3808E-02  0.2123       1.973       17.59       163.4     


                              INCREMENT NUMBER    17
                              FREQUENCY            1.48    



                              INCREMENT NUMBER    18
                              FREQUENCY            1.52    



                              INCREMENT NUMBER    19
                              FREQUENCY            1.54    



                              INCREMENT NUMBER    20
                              FREQUENCY            1.57    

  
  
  
  
                                       N O D E   O U T P U T
  
  
  
  
   THE FOLLOWING TABLE IS PRINTED FOR NODES BELONGING TO NODE SET N2
  
       NODE FOOT-   U2          UR3         V2          VR3         A2          AR3      
            NOTE
  
          2      4.8689E-02  0.4755       4.745       46.34       462.5       4516.     





                                       M O D A L   O U T P U T

     GU1         GU2         GU3         GU4         GU5         GU6         GU7         GU8         GU9     

   6.0023E-02  4.8333E-03  1.0222E-03  6.9621E-05  5.8465E-07  2.4253E-08  5.3271E-08  3.9194E-07  1.8204E-07

     GU10        GU11        GU12        GU13        GU14        GU15        GU16        GU17        GU18    

   9.3238E-09  6.7794E-11  1.1726E-09  6.8792E-09  3.4258E-09  1.1081E-10  9.9375E-27  1.5695E-13  2.5511E-11

     GU19        GU20    

   5.6142E-11  6.3939E-12

     GV1         GV2         GV3         GV4         GV5         GV6         GV7         GV8         GV9     

    5.850      0.4710      9.9624E-02  6.7853E-03  5.6980E-05  2.3637E-06  5.1918E-06  3.8198E-05  1.7742E-05

     GV10        GV11        GV12        GV13        GV14        GV15        GV16        GV17        GV18    

   9.0869E-07  6.6072E-09  1.1428E-07  6.7045E-07  3.3388E-07  1.0800E-08  9.6851E-25  1.5297E-11  2.4863E-09

     GV19        GV20    

   5.4716E-09  6.2315E-10

     GA1         GA2         GA3         GA4         GA5         GA6         GA7         GA8         GA9     

    570.1       45.91       9.709      0.6613      5.5533E-03  2.3037E-04  5.0599E-04  3.7228E-03  1.7291E-03

     GA10        GA11        GA12        GA13        GA14        GA15        GA16        GA17        GA18    

   8.8561E-05  6.4394E-07  1.1138E-05  6.5342E-05  3.2540E-05  1.0525E-06  9.4391E-23  1.4908E-09  2.4232E-07

     GA19        GA20    

   5.3326E-07  6.0732E-08



                              INCREMENT NUMBER    21
                              FREQUENCY            1.57    



                              INCREMENT NUMBER    22
                              FREQUENCY            1.58    



                              INCREMENT NUMBER    23
                              FREQUENCY            1.58    



                              INCREMENT NUMBER    24
                              FREQUENCY            1.59    

  
  
  
  
                                       N O D E   O U T P U T
  
  
  
  
   THE FOLLOWING TABLE IS PRINTED FOR NODES BELONGING TO NODE SET N2
  
       NODE FOOT-   U2          UR3         V2          VR3         A2          AR3      
            NOTE
  
          2      2.4796E-02  0.2434       2.461       24.16       244.2       2398.     


                              INCREMENT NUMBER    25
                              FREQUENCY            1.59    



                              INCREMENT NUMBER    26
                              FREQUENCY            1.60    



                              INCREMENT NUMBER    27
                              FREQUENCY            1.60    



                              INCREMENT NUMBER    28
                              FREQUENCY            1.61    

  
  
  
  
                                       N O D E   O U T P U T
  
  
  
  
   THE FOLLOWING TABLE IS PRINTED FOR NODES BELONGING TO NODE SET N2
  
       NODE FOOT-   U2          UR3         V2          VR3         A2          AR3      
            NOTE
  
          2      9.1169E-03  8.8481E-02  0.9338       9.063       95.65       928.3     


                              INCREMENT NUMBER    29
                              FREQUENCY            1.62    



                              INCREMENT NUMBER    30
                              FREQUENCY            1.69    



                              INCREMENT NUMBER    31
                              FREQUENCY            1.70    



                              INCREMENT NUMBER    32
                              FREQUENCY            1.71    

  
  
  
  
                                       N O D E   O U T P U T
  
  
  
  
   THE FOLLOWING TABLE IS PRINTED FOR NODES BELONGING TO NODE SET N2
  
       NODE FOOT-   U2          UR3         V2          VR3         A2          AR3      
            NOTE
  
          2      9.4252E-02  0.8920       10.91       103.3       1263.      1.1954E+04 


                              INCREMENT NUMBER    33
                              FREQUENCY            1.72    



                              INCREMENT NUMBER    34
                              FREQUENCY            1.72    



                              INCREMENT NUMBER    35
                              FREQUENCY            1.73    



                              INCREMENT NUMBER    36
                              FREQUENCY            1.73    

  
  
  
  
                                       N O D E   O U T P U T
  
  
  
  
   THE FOLLOWING TABLE IS PRINTED FOR NODES BELONGING TO NODE SET N2
  
       NODE FOOT-   U2          UR3         V2          VR3         A2          AR3      
            NOTE
  
          2      0.3041       2.880       36.06       341.5       4276.      4.0492E+04 


                              INCREMENT NUMBER    37
                              FREQUENCY            1.74    



                              INCREMENT NUMBER    38
                              FREQUENCY            1.74    



                              INCREMENT NUMBER    39
                              FREQUENCY            1.74    



                              INCREMENT NUMBER    40
                              FREQUENCY            1.75    

  
  
  
  
                                       N O D E   O U T P U T
  
  
  
  
   THE FOLLOWING TABLE IS PRINTED FOR NODES BELONGING TO NODE SET N2
  
       NODE FOOT-   U2          UR3         V2          VR3         A2          AR3      
            NOTE
  
          2      0.3493       3.310       42.29       400.7       5121.      4.8519E+04 





                                       M O D A L   O U T P U T

     GU1         GU2         GU3         GU4         GU5         GU6         GU7         GU8         GU9     

   2.5242E-05  0.7044      1.6506E-03  4.1558E-05  1.4995E-08  3.7744E-08  2.5736E-09  3.2725E-07  2.6018E-07

     GU10        GU11        GU12        GU13        GU14        GU15        GU16        GU17        GU18    

   2.9079E-08  3.5644E-12  2.3231E-09  6.9511E-09  2.0291E-09  3.5573E-12  7.8950E-27  5.1514E-15  1.5694E-11

     GU19        GU20    

   6.1249E-11  1.5169E-11

     GV1         GV2         GV3         GV4         GV5         GV6         GV7         GV8         GV9     

   3.0562E-03   85.28      0.1998      5.0316E-03  1.8155E-06  4.5698E-06  3.1159E-07  3.9621E-05  3.1500E-05

     GV10        GV11        GV12        GV13        GV14        GV15        GV16        GV17        GV18    

   3.5206E-06  4.3156E-10  2.8127E-07  8.4159E-07  2.4568E-07  4.3070E-10  9.5587E-25  6.2370E-13  1.9001E-09

     GV19        GV20    

   7.4156E-09  1.8366E-09

     GA1         GA2         GA3         GA4         GA5         GA6         GA7         GA8         GA9     

   0.3700      1.0325E+04   24.19      0.6092      2.1981E-04  5.5328E-04  3.7725E-05  4.7970E-03  3.8139E-03

     GA10        GA11        GA12        GA13        GA14        GA15        GA16        GA17        GA18    

   4.2625E-04  5.2250E-08  3.4054E-05  1.0189E-04  2.9745E-05  5.2146E-08  1.1573E-22  7.5513E-11  2.3005E-07

     GA19        GA20    

   8.9783E-07  2.2236E-07



                              INCREMENT NUMBER    41
                              FREQUENCY            1.76    



                              INCREMENT NUMBER    42
                              FREQUENCY            1.77    



                              INCREMENT NUMBER    43
                              FREQUENCY            1.78    



                              INCREMENT NUMBER    44
                              FREQUENCY            1.79    

  
  
  
  
                                       N O D E   O U T P U T
  
  
  
  
   THE FOLLOWING TABLE IS PRINTED FOR NODES BELONGING TO NODE SET N2
  
       NODE FOOT-   U2          UR3         V2          VR3         A2          AR3      
            NOTE
  
          2      5.3536E-02  0.5074       6.783       64.28       859.4       8145.     


                              INCREMENT NUMBER    45
                              FREQUENCY            1.81    



                              INCREMENT NUMBER    46
                              FREQUENCY            1.82    



                              INCREMENT NUMBER    47
                              FREQUENCY            1.84    



                              INCREMENT NUMBER    48
                              FREQUENCY            1.88    

  
  
  
  
                                       N O D E   O U T P U T
  
  
  
  
   THE FOLLOWING TABLE IS PRINTED FOR NODES BELONGING TO NODE SET N2
  
       NODE FOOT-   U2          UR3         V2          VR3         A2          AR3      
            NOTE
  
          2      9.3855E-03  8.8403E-02   1.309       12.33       182.7       1721.     


                              INCREMENT NUMBER    49
                              FREQUENCY            2.04    



                              INCREMENT NUMBER    50
                              FREQUENCY            2.08    



                              INCREMENT NUMBER    51
                              FREQUENCY            2.10    



                              INCREMENT NUMBER    52
                              FREQUENCY            2.12    

  
  
  
  
                                       N O D E   O U T P U T
  
  
  
  
   THE FOLLOWING TABLE IS PRINTED FOR NODES BELONGING TO NODE SET N2
  
       NODE FOOT-   U2          UR3         V2          VR3         A2          AR3      
            NOTE
  
          2      1.0246E-02  8.6825E-02   1.815       15.38       321.6       2726.     


                              INCREMENT NUMBER    53
                              FREQUENCY            2.13    



                              INCREMENT NUMBER    54
                              FREQUENCY            2.14    



                              INCREMENT NUMBER    55
                              FREQUENCY            2.15    



                              INCREMENT NUMBER    56
                              FREQUENCY            2.16    

  
  
  
  
                                       N O D E   O U T P U T
  
  
  
  
   THE FOLLOWING TABLE IS PRINTED FOR NODES BELONGING TO NODE SET N2
  
       NODE FOOT-   U2          UR3         V2          VR3         A2          AR3      
            NOTE
  
          2      3.9536E-02  0.3227       7.308       59.64       1351.      1.1024E+04 


                              INCREMENT NUMBER    57
                              FREQUENCY            2.17    



                              INCREMENT NUMBER    58
                              FREQUENCY            2.18    



                              INCREMENT NUMBER    59
                              FREQUENCY            2.19    



                              INCREMENT NUMBER    60
                              FREQUENCY            2.20    

  
  
  
  
                                       N O D E   O U T P U T
  
  
  
  
   THE FOLLOWING TABLE IS PRINTED FOR NODES BELONGING TO NODE SET N2
  
       NODE FOOT-   U2          UR3         V2          VR3         A2          AR3      
            NOTE
  
          2      2.3468E-02  0.1861       4.492       35.62       859.7       6817.     





                                       M O D A L   O U T P U T

     GU1         GU2         GU3         GU4         GU5         GU6         GU7         GU8         GU9     

   1.5594E-04  1.5122E-03  7.7216E-02  2.4019E-06  6.3887E-08  1.1919E-08  1.2378E-07  4.6613E-08  3.4166E-07

     GU10        GU11        GU12        GU13        GU14        GU15        GU16        GU17        GU18    

   1.7065E-07  1.8171E-10  4.1435E-09  4.0202E-09  1.3248E-10  7.0335E-11  4.5108E-27  1.0775E-13  1.1311E-12

     GU19        GU20    

   4.3790E-11  4.8181E-11

     GV1         GV2         GV3         GV4         GV5         GV6         GV7         GV8         GV9     

   2.9845E-02  0.2894       14.78      4.5971E-04  1.2228E-05  2.2812E-06  2.3691E-05  8.9214E-06  6.5392E-05

     GV10        GV11        GV12        GV13        GV14        GV15        GV16        GV17        GV18    

   3.2661E-05  3.4778E-08  7.9303E-07  7.6944E-07  2.5357E-08  1.3462E-08  8.6333E-25  2.0623E-11  2.1649E-10

     GV19        GV20    

   8.3810E-09  9.2216E-09

     GA1         GA2         GA3         GA4         GA5         GA6         GA7         GA8         GA9     

    5.712       55.39       2829.      8.7985E-02  2.3403E-03  4.3660E-04  4.5343E-03  1.7075E-03  1.2516E-02

     GA10        GA11        GA12        GA13        GA14        GA15        GA16        GA17        GA18    

   6.2510E-03  6.6563E-06  1.5178E-04  1.4727E-04  4.8531E-06  2.5764E-06  1.6524E-22  3.9472E-09  4.1435E-08

     GA19        GA20    

   1.6041E-06  1.7649E-06



                              INCREMENT NUMBER    61
                              FREQUENCY            2.21    



                              INCREMENT NUMBER    62
                              FREQUENCY            2.23    



                              INCREMENT NUMBER    63
                              FREQUENCY            2.24    



                              INCREMENT NUMBER    64
                              FREQUENCY            2.26    

  
  
  
  
                                       N O D E   O U T P U T
  
  
  
  
   THE FOLLOWING TABLE IS PRINTED FOR NODES BELONGING TO NODE SET N2
  
       NODE FOOT-   U2          UR3         V2          VR3         A2          AR3      
            NOTE
  
          2      2.2729E-03  1.7660E-02  0.4585       3.563       92.51       718.8     


                              INCREMENT NUMBER    65
                              FREQUENCY            2.28    



                              INCREMENT NUMBER    66
                              FREQUENCY            2.31    



                              INCREMENT NUMBER    67
                              FREQUENCY            2.36    



                              INCREMENT NUMBER    68
                              FREQUENCY            2.57    

  
  
  
  
                                       N O D E   O U T P U T
  
  
  
  
   THE FOLLOWING TABLE IS PRINTED FOR NODES BELONGING TO NODE SET N2
  
       NODE FOOT-   U2          UR3         V2          VR3         A2          AR3      
            NOTE
  
          2      1.1738E-04  1.1487E-03  3.0606E-02  0.2995       7.980       78.09     


                              INCREMENT NUMBER    69
                              FREQUENCY            2.62    



                              INCREMENT NUMBER    70
                              FREQUENCY            2.65    



                              INCREMENT NUMBER    71
                              FREQUENCY            2.67    



                              INCREMENT NUMBER    72
                              FREQUENCY            2.68    

  
  
  
  
                                       N O D E   O U T P U T
  
  
  
  
   THE FOLLOWING TABLE IS PRINTED FOR NODES BELONGING TO NODE SET N2
  
       NODE FOOT-   U2          UR3         V2          VR3         A2          AR3      
            NOTE
  
          2      1.0462E-04  1.0076E-03  2.9767E-02  0.2867       8.470       81.57     


                              INCREMENT NUMBER    73
                              FREQUENCY            2.70    



                              INCREMENT NUMBER    74
                              FREQUENCY            2.71    



                              INCREMENT NUMBER    75
                              FREQUENCY            2.73    



                              INCREMENT NUMBER    76
                              FREQUENCY            2.74    

  
  
  
  
                                       N O D E   O U T P U T
  
  
  
  
   THE FOLLOWING TABLE IS PRINTED FOR NODES BELONGING TO NODE SET N2
  
       NODE FOOT-   U2          UR3         V2          VR3         A2          AR3      
            NOTE
  
          2      1.5920E-04  1.4329E-03  4.7075E-02  0.4237       13.92       125.3     


                              INCREMENT NUMBER    77
                              FREQUENCY            2.75    



                              INCREMENT NUMBER    78
                              FREQUENCY            2.76    



                              INCREMENT NUMBER    79
                              FREQUENCY            2.77    



                              INCREMENT NUMBER    80
                              FREQUENCY            2.78    




                                                  E L E M E N T   O U T P U T





   THE FOLLOWING TABLE IS PRINTED FOR ALL ELEMENTS WITH TYPE B23 AT THE INTEGRATION POINTS

    ELEMENT  PT FOOT-       SF1         SM1         
                NOTE 


 ALL VALUES IN THIS TABLE ARE ZERO
  
  
  
  
                                       N O D E   O U T P U T
  
  
  
  
   THE FOLLOWING TABLE IS PRINTED FOR NODES BELONGING TO NODE SET N2
  
       NODE FOOT-   U2          UR3         V2          VR3         A2          AR3      
            NOTE
  
          2      1.0110E-04  1.0065E-03  3.0843E-02  0.3071       9.410       93.69     
  
  
  
   THE FOLLOWING TABLE IS PRINTED FOR ALL NODES
  
       NODE FOOT-   V2          VR3         A2          AR3      
            NOTE
  
          1       0.000      0.6060       0.000       184.9     
          2      3.0843E-02  0.3071       9.410       93.69     
          3      6.0929E-02  5.1032E-04   18.59      0.1557     
          4      2.7590E-02  0.3414       8.417       104.2     
          5       0.000      0.4452       0.000       135.8     
          6      2.1843E-02  0.2150       6.664       65.60     
          7      3.9953E-02  4.1255E-03   12.19       1.259     
          8      1.7267E-02  0.2028       5.268       61.89     
          9       0.000      0.3364       0.000       102.6     
         10      1.8270E-02  0.2200       5.574       67.13     
         11      4.2020E-02  6.0969E-02   12.82       18.60     
         12      2.7763E-02  0.1869       8.470       57.03     
         13       0.000      0.7689       0.000       234.6     
         14      4.8959E-02  0.5733       14.94       174.9     
         15      0.1040      5.8847E-03   31.72       1.795     
         16      4.6536E-02  0.5988       14.20       182.7     
         17       0.000      0.6159       0.000       187.9     
         18      1.8724E-02  9.7881E-02   5.713       29.86     
         19      2.4280E-02  1.7629E-02   7.408       5.378     
         20      8.4949E-03  0.1166       2.592       35.56     
         21       0.000      0.1460       0.000       44.54     

 MAXIMUM         0.1040      0.7689       31.72       234.6    
 AT NODE                15          13          15          13

 MINIMUM          0.000      5.1032E-04   0.000      0.1557    
 AT NODE                 1           3           1           3
  
  
  
   THE FOLLOWING TABLE IS PRINTED FOR ALL NODES
  
       NODE FOOT-   RU2         RUR3        RV2         RVR3        RA2         RAR3     
            NOTE
  
          1       0.000      0.7721       0.000       8.698       0.000       100.3     
          2      0.1718      0.5241       1.933       5.871       22.24       67.19     
          3      0.2343      6.6639E-02   2.622      0.8575       29.97       11.36     
          4      0.1545      0.5459       1.712       6.149       19.30       70.91     
          5       0.000      0.6074       0.000       6.628       0.000       73.10     
          6      0.1214      0.3484       1.320       3.876       14.50       44.21     
          7      0.1576      0.1246       1.735       1.547       19.48       19.70     
          8      0.1020      0.3717       1.156       4.067       13.51       45.25     
          9       0.000      0.4110       0.000       4.939       0.000       61.56     
         10      8.9301E-02  0.2902       1.132       3.778       14.80       50.36     
         11      0.1230      0.1139       1.590       1.257       21.10       13.98     
         12      8.2142E-02  0.2987       1.058       3.862       14.01       51.22     
         13       0.000      0.3488       0.000       4.281       0.000       54.47     
         14      8.6336E-02  0.3315      0.9855       3.640       11.60       40.55     
         15      0.1384      0.1430       1.527       1.768       17.15       22.43     
         16      0.1121      0.2996       1.227       3.344       13.57       38.22     
         17       0.000      0.6003       0.000       6.660       0.000       74.89     
         18      0.1601      0.5824       1.810       6.686       20.86       78.64     
         19      0.2472      7.4662E-02   2.821      0.9505       32.93       12.46     
         20      0.1826      0.5539       2.094       6.328       24.59       73.95     
         21       0.000      0.8222       0.000       9.441       0.000       111.1     

 MAXIMUM         0.2472      0.8222       2.821       9.441       32.93       111.1    
 AT NODE                19          21          19          21          19          21

 MINIMUM          0.000      6.6639E-02   0.000      0.8575       0.000       11.36    
 AT NODE                 1           3           1           3           1           3





                                       M O D A L   O U T P U T

     GU1         GU2         GU3         GU4         GU5         GU6         GU7         GU8         GU9     

   1.3857E-04  2.3962E-05  1.4566E-07  4.6181E-05  1.7494E-07  5.1049E-08  6.3779E-08  1.2726E-07  5.8718E-08

     GU10        GU11        GU12        GU13        GU14        GU15        GU16        GU17        GU18    

   4.8516E-07  8.3166E-11  3.1482E-09  3.1832E-10  1.7265E-10  1.5607E-11  4.3798E-27  2.5102E-14  1.6122E-12

     GU19        GU20    

   4.2927E-12  7.9654E-11

     GV1         GV2         GV3         GV4         GV5         GV6         GV7         GV8         GV9     

   4.2276E-02  7.3106E-03  4.4440E-05  1.4089E-02  5.3373E-05  1.5575E-05  1.9459E-05  3.8825E-05  1.7915E-05

     GV10        GV11        GV12        GV13        GV14        GV15        GV16        GV17        GV18    

   1.4802E-04  2.5373E-08  9.6049E-07  9.7117E-08  5.2674E-08  4.7616E-09  1.3362E-24  7.6584E-12  4.9188E-10

     GV19        GV20    

   1.3097E-09  2.4302E-08

     GA1         GA2         GA3         GA4         GA5         GA6         GA7         GA8         GA9     

    12.90       2.230      1.3558E-02   4.299      1.6284E-02  4.7517E-03  5.9366E-03  1.1845E-02  5.4656E-03

     GA10        GA11        GA12        GA13        GA14        GA15        GA16        GA17        GA18    

   4.5159E-02  7.7412E-06  2.9304E-04  2.9630E-05  1.6071E-05  1.4527E-06  4.0768E-22  2.3365E-09  1.5007E-07

     GA19        GA20    

   3.9957E-07  7.4143E-06



                              INCREMENT NUMBER    81
                              FREQUENCY            2.79    



                              INCREMENT NUMBER    82
                              FREQUENCY            2.81    



                              INCREMENT NUMBER    83
                              FREQUENCY            2.83    



                              INCREMENT NUMBER    84
                              FREQUENCY            2.85    

  
  
  
  
                                       N O D E   O U T P U T
  
  
  
  
   THE FOLLOWING TABLE IS PRINTED FOR NODES BELONGING TO NODE SET N2
  
       NODE FOOT-   U2          UR3         V2          VR3         A2          AR3      
            NOTE
  
          2      6.7168E-05  7.0419E-04  2.1482E-02  0.2252       6.871       72.03     


                              INCREMENT NUMBER    85
                              FREQUENCY            2.87    



                              INCREMENT NUMBER    86
                              FREQUENCY            2.92    



                              INCREMENT NUMBER    87
                              FREQUENCY            3.13    



                              INCREMENT NUMBER    88
                              FREQUENCY            3.17    

  
  
  
  
                                       N O D E   O U T P U T
  
  
  
  
   THE FOLLOWING TABLE IS PRINTED FOR NODES BELONGING TO NODE SET N2
  
       NODE FOOT-   U2          UR3         V2          VR3         A2          AR3      
            NOTE
  
          2      5.1400E-05  4.8186E-04  2.0423E-02  0.1915       8.115       76.07     


                              INCREMENT NUMBER    89
                              FREQUENCY            3.20    



                              INCREMENT NUMBER    90
                              FREQUENCY            3.22    



                              INCREMENT NUMBER    91
                              FREQUENCY            3.24    



                              INCREMENT NUMBER    92
                              FREQUENCY            3.25    

  
  
  
  
                                       N O D E   O U T P U T
  
  
  
  
   THE FOLLOWING TABLE IS PRINTED FOR NODES BELONGING TO NODE SET N2
  
       NODE FOOT-   U2          UR3         V2          VR3         A2          AR3      
            NOTE
  
          2      7.9094E-05  6.3955E-04  3.3050E-02  0.2672       13.81       111.7     


                              INCREMENT NUMBER    93
                              FREQUENCY            3.27    



                              INCREMENT NUMBER    94
                              FREQUENCY            3.28    



                              INCREMENT NUMBER    95
                              FREQUENCY            3.29    



                              INCREMENT NUMBER    96
                              FREQUENCY            3.30    

  
  
  
  
                                       N O D E   O U T P U T
  
  
  
  
   THE FOLLOWING TABLE IS PRINTED FOR NODES BELONGING TO NODE SET N2
  
       NODE FOOT-   U2          UR3         V2          VR3         A2          AR3      
            NOTE
  
          2      1.1603E-04  8.9058E-04  4.9862E-02  0.3827       21.43       164.5     


                              INCREMENT NUMBER    97
                              FREQUENCY            3.35    



                              INCREMENT NUMBER    98
                              FREQUENCY            3.41    



                              INCREMENT NUMBER    99
                              FREQUENCY            3.48    



                              INCREMENT NUMBER   100
                              FREQUENCY            3.55    

  
  
  
  
                                       N O D E   O U T P U T
  
  
  
  
   THE FOLLOWING TABLE IS PRINTED FOR NODES BELONGING TO NODE SET N2
  
       NODE FOOT-   U2          UR3         V2          VR3         A2          AR3      
            NOTE
  
          2      2.0286E-05  2.1895E-04  1.0092E-02  0.1089       5.021       54.19     





                                       M O D A L   O U T P U T

     GU1         GU2         GU3         GU4         GU5         GU6         GU7         GU8         GU9     

   1.6342E-05  3.6443E-05  1.2467E-05  1.0488E-07  1.6646E-05  2.6850E-09  4.1756E-07  5.4282E-09  3.6999E-07

     GU10        GU11        GU12        GU13        GU14        GU15        GU16        GU17        GU18    

   3.9433E-07  3.5889E-10  4.2034E-09  1.9607E-09  5.5555E-12  6.1473E-11  2.1042E-27  9.4011E-14  4.7698E-14

     GU19        GU20    

   2.2256E-11  6.1067E-11

     GV1         GV2         GV3         GV4         GV5         GV6         GV7         GV8         GV9     

   8.1301E-03  1.8130E-02  6.2025E-03  5.2178E-05  8.2813E-03  1.3358E-06  2.0774E-04  2.7006E-06  1.8407E-04

     GV10        GV11        GV12        GV13        GV14        GV15        GV16        GV17        GV18    

   1.9618E-04  1.7855E-07  2.0912E-06  9.7547E-07  2.7639E-09  3.0583E-08  1.0468E-24  4.6771E-11  2.3730E-11

     GV19        GV20    

   1.1073E-08  3.0381E-08

     GA1         GA2         GA3         GA4         GA5         GA6         GA7         GA8         GA9     

    4.045       9.020       3.086      2.5959E-02   4.120      6.6458E-04  0.1034      1.3436E-03  9.1577E-02

     GA10        GA11        GA12        GA13        GA14        GA15        GA16        GA17        GA18    

   9.7602E-02  8.8829E-05  1.0404E-03  4.8530E-04  1.3750E-06  1.5215E-05  5.2081E-22  2.3269E-08  1.1806E-08

     GA19        GA20    

   5.5087E-06  1.5115E-05



                              INCREMENT NUMBER   101
                              FREQUENCY            3.63    



                              INCREMENT NUMBER   102
                              FREQUENCY            3.73    



                              INCREMENT NUMBER   103
                              FREQUENCY            3.84    



                              INCREMENT NUMBER   104
                              FREQUENCY            3.99    

  
  
  
  
                                       N O D E   O U T P U T
  
  
  
  
   THE FOLLOWING TABLE IS PRINTED FOR NODES BELONGING TO NODE SET N2
  
       NODE FOOT-   U2          UR3         V2          VR3         A2          AR3      
            NOTE
  
          2      1.3006E-05  1.2073E-04  8.1773E-03  7.5904E-02   5.141       47.72     


                              INCREMENT NUMBER   105
                              FREQUENCY            4.24    



                              INCREMENT NUMBER   106
                              FREQUENCY            5.37    



                              INCREMENT NUMBER   107
                              FREQUENCY            5.62    



                              INCREMENT NUMBER   108
                              FREQUENCY            5.77    

  
  
  
  
                                       N O D E   O U T P U T
  
  
  
  
   THE FOLLOWING TABLE IS PRINTED FOR NODES BELONGING TO NODE SET N2
  
       NODE FOOT-   U2          UR3         V2          VR3         A2          AR3      
            NOTE
  
          2      9.8971E-05  8.9313E-06  0.1300      1.1731E-02   170.7       15.41     


                              INCREMENT NUMBER   109
                              FREQUENCY            5.88    



                              INCREMENT NUMBER   110
                              FREQUENCY            5.98    



                              INCREMENT NUMBER   111
                              FREQUENCY            6.06    



                              INCREMENT NUMBER   112
                              FREQUENCY            6.13    

  
  
  
  
                                       N O D E   O U T P U T
  
  
  
  
   THE FOLLOWING TABLE IS PRINTED FOR NODES BELONGING TO NODE SET N2
  
       NODE FOOT-   U2          UR3         V2          VR3         A2          AR3      
            NOTE
  
          2      7.8969E-04  1.6302E-08   1.171      2.4181E-05   1737.      3.5867E-02 


                              INCREMENT NUMBER   113
                              FREQUENCY            6.19    



                              INCREMENT NUMBER   114
                              FREQUENCY            6.25    



                              INCREMENT NUMBER   115
                              FREQUENCY            6.31    



                              INCREMENT NUMBER   116
                              FREQUENCY            6.32    

  
  
  
  
                                       N O D E   O U T P U T
  
  
  
  
   THE FOLLOWING TABLE IS PRINTED FOR NODES BELONGING TO NODE SET N2
  
       NODE FOOT-   U2          UR3         V2          VR3         A2          AR3      
            NOTE
  
          2      6.7946E-03  5.5412E-06   10.70      8.7239E-03  1.6841E+04   13.73     


                              INCREMENT NUMBER   117
                              FREQUENCY            6.32    



                              INCREMENT NUMBER   118
                              FREQUENCY            6.33    



                              INCREMENT NUMBER   119
                              FREQUENCY            6.34    



                              INCREMENT NUMBER   120
                              FREQUENCY            6.35    

  
  
  
  
                                       N O D E   O U T P U T
  
  
  
  
   THE FOLLOWING TABLE IS PRINTED FOR NODES BELONGING TO NODE SET N2
  
       NODE FOOT-   U2          UR3         V2          VR3         A2          AR3      
            NOTE
  
          2      5.0597E-03  8.8228E-06   8.050      1.4038E-02  1.2809E+04   22.34     





                                       M O D A L   O U T P U T

     GU1         GU2         GU3         GU4         GU5         GU6         GU7         GU8         GU9     

   8.2955E-09  5.6915E-08  5.7205E-08  2.0493E-07  1.1415E-06  3.4924E-03  1.3722E-04  1.0038E-06  3.7660E-08

     GU10        GU11        GU12        GU13        GU14        GU15        GU16        GU17        GU18    

   8.1951E-09  8.3442E-10  3.9290E-09  2.0516E-09  4.1389E-09  1.5198E-08  7.5191E-28  1.1132E-11  1.1735E-11

     GU19        GU20    

   3.8669E-12  2.3521E-12

     GV1         GV2         GV3         GV4         GV5         GV6         GV7         GV8         GV9     

   1.3199E-05  9.0556E-05  9.1017E-05  3.2607E-04  1.8163E-03   5.557      0.2183      1.5972E-03  5.9921E-05

     GV10        GV11        GV12        GV13        GV14        GV15        GV16        GV17        GV18    

   1.3039E-05  1.3276E-06  6.2514E-06  3.2643E-06  6.5853E-06  2.4182E-05  1.1963E-24  1.7713E-08  1.8672E-08

     GV19        GV20    

   6.1526E-09  3.7423E-09

     GA1         GA2         GA3         GA4         GA5         GA6         GA7         GA8         GA9     

   2.1000E-02  0.1441      0.1448      0.5188       2.890       8841.       347.4       2.541      9.5339E-02

     GA10        GA11        GA12        GA13        GA14        GA15        GA16        GA17        GA18    

   2.0746E-02  2.1124E-03  9.9464E-03  5.1938E-03  1.0478E-02  3.8475E-02  1.9035E-21  2.8182E-05  2.9708E-05

     GA19        GA20    

   9.7893E-06  5.9544E-06



                              INCREMENT NUMBER   121
                              FREQUENCY            6.36    



                              INCREMENT NUMBER   122
                              FREQUENCY            6.37    



                              INCREMENT NUMBER   123
                              FREQUENCY            6.39    



                              INCREMENT NUMBER   124
                              FREQUENCY            6.42    

  
  
  
  
                                       N O D E   O U T P U T
  
  
  
  
   THE FOLLOWING TABLE IS PRINTED FOR NODES BELONGING TO NODE SET N2
  
       NODE FOOT-   U2          UR3         V2          VR3         A2          AR3      
            NOTE
  
          2      2.1177E-03  2.2151E-05   3.448      3.6065E-02   5614.       58.72     


                              INCREMENT NUMBER   125
                              FREQUENCY            6.56    



                              INCREMENT NUMBER   126
                              FREQUENCY            6.59    



                              INCREMENT NUMBER   127
                              FREQUENCY            6.61    



                              INCREMENT NUMBER   128
                              FREQUENCY            6.62    

  
  
  
  
                                       N O D E   O U T P U T
  
  
  
  
   THE FOLLOWING TABLE IS PRINTED FOR NODES BELONGING TO NODE SET N2
  
       NODE FOOT-   U2          UR3         V2          VR3         A2          AR3      
            NOTE
  
          2      4.9888E-03  3.6810E-04   8.631      0.6369      1.4934E+04   1102.     


                              INCREMENT NUMBER   129
                              FREQUENCY            6.63    



                              INCREMENT NUMBER   130
                              FREQUENCY            6.64    



                              INCREMENT NUMBER   131
                              FREQUENCY            6.65    



                              INCREMENT NUMBER   132
                              FREQUENCY            6.66    

  
  
  
  
                                       N O D E   O U T P U T
  
  
  
  
   THE FOLLOWING TABLE IS PRINTED FOR NODES BELONGING TO NODE SET N2
  
       NODE FOOT-   U2          UR3         V2          VR3         A2          AR3      
            NOTE
  
          2      7.3332E-03  6.0048E-04   12.83       1.051      2.2456E+04   1839.     


                              INCREMENT NUMBER   133
                              FREQUENCY            6.66    



                              INCREMENT NUMBER   134
                              FREQUENCY            6.67    



                              INCREMENT NUMBER   135
                              FREQUENCY            6.69    



                              INCREMENT NUMBER   136
                              FREQUENCY            6.70    

  
  
  
  
                                       N O D E   O U T P U T
  
  
  
  
   THE FOLLOWING TABLE IS PRINTED FOR NODES BELONGING TO NODE SET N2
  
       NODE FOOT-   U2          UR3         V2          VR3         A2          AR3      
            NOTE
  
          2      6.1145E-03  5.5372E-04   10.85      0.9822      1.9240E+04   1742.     


                              INCREMENT NUMBER   137
                              FREQUENCY            6.72    



                              INCREMENT NUMBER   138
                              FREQUENCY            6.74    



                              INCREMENT NUMBER   139
                              FREQUENCY            6.76    



                              INCREMENT NUMBER   140
                              FREQUENCY            6.79    

  
  
  
  
                                       N O D E   O U T P U T
  
  
  
  
   THE FOLLOWING TABLE IS PRINTED FOR NODES BELONGING TO NODE SET N2
  
       NODE FOOT-   U2          UR3         V2          VR3         A2          AR3      
            NOTE
  
          2      1.8371E-03  2.0453E-04   3.343      0.3722       6085.       677.5     





                                       M O D A L   O U T P U T

     GU1         GU2         GU3         GU4         GU5         GU6         GU7         GU8         GU9     

   2.8968E-09  3.9999E-08  1.9538E-08  1.8422E-07  7.8648E-08  1.8840E-05  1.5165E-03  2.2828E-05  1.1144E-07

     GU10        GU11        GU12        GU13        GU14        GU15        GU16        GU17        GU18    

   3.1750E-08  8.1894E-10  7.7954E-09  2.1293E-09  1.4679E-08  7.7933E-09  1.5579E-27  5.0661E-12  3.5528E-11

     GU19        GU20    

   3.2813E-12  3.6893E-12

     GV1         GV2         GV3         GV4         GV5         GV6         GV7         GV8         GV9     

   5.2723E-06  7.2799E-05  3.5560E-05  3.3529E-04  1.4314E-04  3.4290E-02   2.760      4.1548E-02  2.0283E-04

     GV10        GV11        GV12        GV13        GV14        GV15        GV16        GV17        GV18    

   5.7785E-05  1.4905E-06  1.4188E-05  3.8755E-06  2.6716E-05  1.4184E-05  2.8354E-24  9.2204E-09  6.4661E-08

     GV19        GV20    

   5.9721E-09  6.7146E-09

     GA1         GA2         GA3         GA4         GA5         GA6         GA7         GA8         GA9     

   9.5957E-03  0.1325      6.4720E-02  0.6102      0.2605       62.41       5023.       75.62      0.3692    

     GA10        GA11        GA12        GA13        GA14        GA15        GA16        GA17        GA18    

   0.1052      2.7127E-03  2.5822E-02  7.0534E-03  4.8623E-02  2.5815E-02  5.1606E-21  1.6781E-05  1.1769E-04

     GA19        GA20    

   1.0869E-05  1.2221E-05



                              INCREMENT NUMBER   141
                              FREQUENCY            6.82    



                              INCREMENT NUMBER   142
                              FREQUENCY            6.86    



                              INCREMENT NUMBER   143
                              FREQUENCY            6.93    



                              INCREMENT NUMBER   144
                              FREQUENCY            7.25    

  
  
  
  
                                       N O D E   O U T P U T
  
  
  
  
   THE FOLLOWING TABLE IS PRINTED FOR NODES BELONGING TO NODE SET N2
  
       NODE FOOT-   U2          UR3         V2          VR3         A2          AR3      
            NOTE
  
          2      3.2916E-04  2.6688E-04  0.6823      0.5532       1414.       1147.     


                              INCREMENT NUMBER   145
                              FREQUENCY            7.32    



                              INCREMENT NUMBER   146
                              FREQUENCY            7.36    



                              INCREMENT NUMBER   147
                              FREQUENCY            7.39    



                              INCREMENT NUMBER   148
                              FREQUENCY            7.42    

  
  
  
  
                                       N O D E   O U T P U T
  
  
  
  
   THE FOLLOWING TABLE IS PRINTED FOR NODES BELONGING TO NODE SET N2
  
       NODE FOOT-   U2          UR3         V2          VR3         A2          AR3      
            NOTE
  
          2      1.2123E-03  1.2213E-03   2.631       2.651       5712.       5755.     


                              INCREMENT NUMBER   149
                              FREQUENCY            7.44    



                              INCREMENT NUMBER   150
                              FREQUENCY            7.46    



                              INCREMENT NUMBER   151
                              FREQUENCY            7.48    



                              INCREMENT NUMBER   152
                              FREQUENCY            7.49    

  
  
  
  
                                       N O D E   O U T P U T
  
  
  
  
   THE FOLLOWING TABLE IS PRINTED FOR NODES BELONGING TO NODE SET N2
  
       NODE FOOT-   U2          UR3         V2          VR3         A2          AR3      
            NOTE
  
          2      2.6885E-03  2.7949E-03   5.958       6.193      1.3201E+04  1.3724E+04 


                              INCREMENT NUMBER   153
                              FREQUENCY            7.51    



                              INCREMENT NUMBER   154
                              FREQUENCY            7.53    



                              INCREMENT NUMBER   155
                              FREQUENCY            7.55    



                              INCREMENT NUMBER   156
                              FREQUENCY            7.57    

  
  
  
  
                                       N O D E   O U T P U T
  
  
  
  
   THE FOLLOWING TABLE IS PRINTED FOR NODES BELONGING TO NODE SET N2
  
       NODE FOOT-   U2          UR3         V2          VR3         A2          AR3      
            NOTE
  
          2      1.6016E-03  1.7298E-03   3.621       3.910       8185.       8840.     


                              INCREMENT NUMBER   157
                              FREQUENCY            7.59    



                              INCREMENT NUMBER   158
                              FREQUENCY            7.62    



                              INCREMENT NUMBER   159
                              FREQUENCY            7.65    



                              INCREMENT NUMBER   160
                              FREQUENCY            7.69    




                                                  E L E M E N T   O U T P U T





   THE FOLLOWING TABLE IS PRINTED FOR ALL ELEMENTS WITH TYPE B23 AT THE INTEGRATION POINTS

    ELEMENT  PT FOOT-       SF1         SM1         
                NOTE 


 ALL VALUES IN THIS TABLE ARE ZERO
  
  
  
  
                                       N O D E   O U T P U T
  
  
  
  
   THE FOLLOWING TABLE IS PRINTED FOR NODES BELONGING TO NODE SET N2
  
       NODE FOOT-   U2          UR3         V2          VR3         A2          AR3      
            NOTE
  
          2      3.5555E-04  4.4529E-04  0.8297       1.039       1936.       2425.     
  
  
  
   THE FOLLOWING TABLE IS PRINTED FOR ALL NODES
  
       NODE FOOT-   V2          VR3         A2          AR3      
            NOTE
  
          1       0.000       40.83       0.000      9.5276E+04 
          2      0.8297       1.039       1936.       2425.     
          3      8.0728E-02   36.55       188.4      8.5305E+04 
          4      0.7807       4.570       1822.      1.0665E+04 
          5       0.000       2.385       0.000       5565.     
          6      0.1942       5.428       453.2      1.2667E+04 
          7      0.1393       8.705       325.0      2.0315E+04 
          8      0.1672       2.641       390.1       6164.     
          9       0.000       20.01       0.000      4.6688E+04 
         10      0.7913      0.2617       1847.       610.8     
         11      8.1388E-03   34.80       18.99      8.1220E+04 
         12      0.7599      0.8321       1773.       1942.     
         13       0.000       12.99       0.000      3.0305E+04 
         14      5.8465E-02   2.808       136.4       6552.     
         15      0.1155       3.262       269.6       7613.     
         16      7.7417E-02   3.660       180.7       8541.     
         17       0.000       3.231       0.000       7540.     
         18      0.5701       2.534       1330.       5913.     
         19      4.5333E-02   25.59       105.8      5.9726E+04 
         20      0.5752      0.5603       1342.       1308.     
         21       0.000       27.50       0.000      6.4178E+04 

 MAXIMUM         0.8297       40.83       1936.      9.5276E+04
 AT NODE                 2           1           2           1

 MINIMUM          0.000      0.2617       0.000       610.8    
 AT NODE                 1          10           1          10
  
  
  
   THE FOLLOWING TABLE IS PRINTED FOR ALL NODES
  
       NODE FOOT-   RU2         RUR3        RV2         RVR3        RA2         RAR3     
            NOTE
  
          1       0.000      0.8597       0.000       18.10       0.000       681.7     
          2      0.1815      0.5254       3.110       6.024       105.3       89.37     
          3      0.2347      0.3774       2.657       15.65       34.79       663.7     
          4      0.1651      0.5496       2.973       6.728       104.6       142.9     
          5       0.000      0.6772       0.000       13.87       0.000       503.9     
          6      0.1286      0.3580       2.150       5.255       70.47       165.9     
          7      0.1587      0.2941       1.869       10.94       35.38       442.9     
          8      0.1107      0.3794       2.083       5.174       71.76       148.5     
          9       0.000      0.4824       0.000       11.56       0.000       444.1     
         10      9.8657E-02  0.2963       2.102       4.430       78.08       108.0     
         11      0.1240      0.2891       1.668       11.48       28.53       498.3     
         12      9.2102E-02  0.3046       2.051       4.499       77.25       108.6     
         13       0.000      0.4173       0.000       10.39       0.000       402.7     
         14      9.3678E-02  0.3393       1.747       4.705       59.54       137.8     
         15      0.1395      0.2620       1.656       9.062       31.83       362.8     
         16      0.1174      0.3085       1.852       4.560       57.66       144.2     
         17       0.000      0.6449       0.000       11.63       0.000       396.7     
         18      0.1664      0.5847       2.621       7.043       83.05       127.4     
         19      0.2475      0.2948       2.845       12.06       36.12       512.6     
         20      0.1879      0.5547       2.795       6.420       82.16       87.44     
         21       0.000      0.8706       0.000       15.31       0.000       525.3     

 MAXIMUM         0.2475      0.8706       3.110       18.10       105.3       681.7    
 AT NODE                19          21           2           1           2           1

 MINIMUM          0.000      0.2620       0.000       4.430       0.000       87.44    
 AT NODE                 1          15           1          10           1          20





                                       M O D A L   O U T P U T

     GU1         GU2         GU3         GU4         GU5         GU6         GU7         GU8         GU9     

   4.0535E-10  1.8927E-08  9.3524E-09  3.7788E-09  4.7383E-10  5.5765E-07  4.1770E-07  3.8480E-04  2.1886E-05

     GU10        GU11        GU12        GU13        GU14        GU15        GU16        GU17        GU18    

   7.0397E-07  1.1405E-09  4.3200E-08  3.7923E-08  4.6908E-09  2.0579E-11  1.1649E-27  8.4671E-15  6.4891E-12

     GU19        GU20    

   3.0913E-11  1.0513E-11

     GV1         GV2         GV3         GV4         GV5         GV6         GV7         GV8         GV9     

   9.4595E-07  4.4168E-05  2.1825E-05  8.8183E-06  1.1057E-06  1.3014E-03  9.7476E-04  0.8980      5.1075E-02

     GV10        GV11        GV12        GV13        GV14        GV15        GV16        GV17        GV18    

   1.6428E-03  2.6616E-06  1.0081E-04  8.8498E-05  1.0947E-05  4.8024E-08  2.7184E-24  1.9759E-11  1.5143E-08

     GV19        GV20    

   7.2140E-08  2.4533E-08

     GA1         GA2         GA3         GA4         GA5         GA6         GA7         GA8         GA9     

   2.2075E-03  0.1031      5.0932E-02  2.0579E-02  2.5804E-03   3.037       2.275       2096.       119.2    

     GA10        GA11        GA12        GA13        GA14        GA15        GA16        GA17        GA18    

    3.834      6.2113E-03  0.2353      0.2065      2.5546E-02  1.1207E-04  6.3438E-21  4.6111E-08  3.5339E-05

     GA19        GA20    

   1.6835E-04  5.7252E-05



                              INCREMENT NUMBER   161
                              FREQUENCY            7.74    



                              INCREMENT NUMBER   162
                              FREQUENCY            7.82    



                              INCREMENT NUMBER   163
                              FREQUENCY            8.20    



                              INCREMENT NUMBER   164
                              FREQUENCY            8.28    

  
  
  
  
                                       N O D E   O U T P U T
  
  
  
  
   THE FOLLOWING TABLE IS PRINTED FOR NODES BELONGING TO NODE SET N2
  
       NODE FOOT-   U2          UR3         V2          VR3         A2          AR3      
            NOTE
  
          2      7.3264E-05  3.3114E-04  0.1985      0.8972       537.9       2431.     


                              INCREMENT NUMBER   165
                              FREQUENCY            8.34    



                              INCREMENT NUMBER   166
                              FREQUENCY            8.37    



                              INCREMENT NUMBER   167
                              FREQUENCY            8.41    



                              INCREMENT NUMBER   168
                              FREQUENCY            8.43    

  
  
  
  
                                       N O D E   O U T P U T
  
  
  
  
   THE FOLLOWING TABLE IS PRINTED FOR NODES BELONGING TO NODE SET N2
  
       NODE FOOT-   U2          UR3         V2          VR3         A2          AR3      
            NOTE
  
          2      2.1934E-04  9.4907E-04  0.6157       2.664       1728.       7478.     


                              INCREMENT NUMBER   169
                              FREQUENCY            8.46    



                              INCREMENT NUMBER   170
                              FREQUENCY            8.48    



                              INCREMENT NUMBER   171
                              FREQUENCY            8.50    



                              INCREMENT NUMBER   172
                              FREQUENCY            8.52    

  
  
  
  
                                       N O D E   O U T P U T
  
  
  
  
   THE FOLLOWING TABLE IS PRINTED FOR NODES BELONGING TO NODE SET N2
  
       NODE FOOT-   U2          UR3         V2          VR3         A2          AR3      
            NOTE
  
          2      3.5022E-04  1.5273E-03   1.003       4.373       2871.      1.2522E+04 


                              INCREMENT NUMBER   173
                              FREQUENCY            8.53    



                              INCREMENT NUMBER   174
                              FREQUENCY            8.55    



                              INCREMENT NUMBER   175
                              FREQUENCY            8.57    



                              INCREMENT NUMBER   176
                              FREQUENCY            8.60    

  
  
  
  
                                       N O D E   O U T P U T
  
  
  
  
   THE FOLLOWING TABLE IS PRINTED FOR NODES BELONGING TO NODE SET N2
  
       NODE FOOT-   U2          UR3         V2          VR3         A2          AR3      
            NOTE
  
          2      1.5031E-04  7.0789E-04  0.4384       2.065       1279.       6022.     


                              INCREMENT NUMBER   177
                              FREQUENCY            8.62    



                              INCREMENT NUMBER   178
                              FREQUENCY            8.65    



                              INCREMENT NUMBER   179
                              FREQUENCY            8.69    



                              INCREMENT NUMBER   180
                              FREQUENCY            8.73    

  
  
  
  
                                       N O D E   O U T P U T
  
  
  
  
[...]

   1.7316E-07  1.4208E-05  1.0585E-06  4.2282E-05  7.0459E-05  3.7193E-04  7.0555E-04  1.5600E-04  1.6946E-06

     GV10        GV11        GV12        GV13        GV14        GV15        GV16        GV17        GV18    

   1.1092E-05  4.1803E-06  4.2120E-04  1.0083E-04  5.7851E-02  4.4642E-03  3.0745E-23  2.4529E-07  5.3755E-07

     GV19        GV20    

   1.1231E-08  7.5142E-08

     GA1         GA2         GA3         GA4         GA5         GA6         GA7         GA8         GA9     

   2.0894E-03  0.1714      1.2773E-02  0.5102      0.8502       4.488       8.514       1.882      2.0448E-02

     GA10        GA11        GA12        GA13        GA14        GA15        GA16        GA17        GA18    

   0.1338      5.0441E-02   5.082       1.217       698.1       53.87      3.7099E-19  2.9598E-03  6.4864E-03

     GA19        GA20    

   1.3552E-04  9.0670E-04



                              INCREMENT NUMBER   261
                              FREQUENCY            17.5    



                              INCREMENT NUMBER   262
                              FREQUENCY            17.6    



                              INCREMENT NUMBER   263
                              FREQUENCY            17.6    



                              INCREMENT NUMBER   264
                              FREQUENCY            17.7    

  
  
  
  
                                       N O D E   O U T P U T
  
  
  
  
   THE FOLLOWING TABLE IS PRINTED FOR NODES BELONGING TO NODE SET N2
  
       NODE FOOT-   U2          UR3         V2          VR3         A2          AR3      
            NOTE
  
          2      6.4484E-07  2.1651E-04  7.9431E-03   2.667       97.84      3.2851E+04 


                              INCREMENT NUMBER   265
                              FREQUENCY            17.7    



                              INCREMENT NUMBER   266
                              FREQUENCY            17.7    



                              INCREMENT NUMBER   267
                              FREQUENCY            17.8    



                              INCREMENT NUMBER   268
                              FREQUENCY            17.8    

  
  
  
  
                                       N O D E   O U T P U T
  
  
  
  
   THE FOLLOWING TABLE IS PRINTED FOR NODES BELONGING TO NODE SET N2
  
       NODE FOOT-   U2          UR3         V2          VR3         A2          AR3      
            NOTE
  
          2      3.0373E-07  1.3924E-04  3.7899E-03   1.737       47.29      2.1679E+04 


                              INCREMENT NUMBER   269
                              FREQUENCY            17.8    



                              INCREMENT NUMBER   270
                              FREQUENCY            17.8    



                              INCREMENT NUMBER   271
                              FREQUENCY            17.9    



                              INCREMENT NUMBER   272
                              FREQUENCY            17.9    

  
  
  
  
                                       N O D E   O U T P U T
  
  
  
  
   THE FOLLOWING TABLE IS PRINTED FOR NODES BELONGING TO NODE SET N2
  
       NODE FOOT-   U2          UR3         V2          VR3         A2          AR3      
            NOTE
  
          2      2.2796E-08  2.4442E-05  2.8846E-04  0.3093       3.650       3914.     


                              INCREMENT NUMBER   273
                              FREQUENCY            17.9    



                              INCREMENT NUMBER   274
                              FREQUENCY            18.0    



                              INCREMENT NUMBER   275
                              FREQUENCY            18.1    



                              INCREMENT NUMBER   276
                              FREQUENCY            18.2    

  
  
  
  
                                       N O D E   O U T P U T
  
  
  
  
   THE FOLLOWING TABLE IS PRINTED FOR NODES BELONGING TO NODE SET N2
  
       NODE FOOT-   U2          UR3         V2          VR3         A2          AR3      
            NOTE
  
          2      1.3523E-07  7.2656E-06  1.7641E-03  9.4780E-02   23.01       1236.     


                              INCREMENT NUMBER   277
                              FREQUENCY            18.7    



                              INCREMENT NUMBER   278
                              FREQUENCY            18.8    



                              INCREMENT NUMBER   279
                              FREQUENCY            18.9    



                              INCREMENT NUMBER   280
                              FREQUENCY            18.9    

  
  
  
  
                                       N O D E   O U T P U T
  
  
  
  
   THE FOLLOWING TABLE IS PRINTED FOR NODES BELONGING TO NODE SET N2
  
       NODE FOOT-   U2          UR3         V2          VR3         A2          AR3      
            NOTE
  
          2      2.2133E-07  3.4696E-05  3.1275E-03  0.4903       44.19       6928.     





                                       M O D A L   O U T P U T

     GU1         GU2         GU3         GU4         GU5         GU6         GU7         GU8         GU9     

   3.9962E-10  1.4641E-09  4.1449E-09  2.4724E-08  1.7533E-08  3.2635E-09  3.3732E-08  1.0923E-08  3.1721E-10

     GU10        GU11        GU12        GU13        GU14        GU15        GU16        GU17        GU18    

   1.1641E-11  6.4172E-10  2.8351E-09  1.5386E-08  3.9974E-07  4.2634E-06  3.8861E-27  1.1618E-11  9.8223E-11

     GU19        GU20    

   1.7845E-11  3.2625E-12

     GV1         GV2         GV3         GV4         GV5         GV6         GV7         GV8         GV9     

   5.6468E-06  2.0688E-05  5.8569E-05  3.4936E-04  2.4775E-04  4.6115E-05  4.7665E-04  1.5434E-04  4.4822E-06

     GV10        GV11        GV12        GV13        GV14        GV15        GV16        GV17        GV18    

   1.6449E-07  9.0678E-06  4.0061E-05  2.1741E-04  5.6484E-03  6.0243E-02  5.4912E-23  1.6417E-07  1.3879E-06

     GV19        GV20    

   2.5215E-07  4.6101E-08

     GA1         GA2         GA3         GA4         GA5         GA6         GA7         GA8         GA9     

   7.9791E-02  0.2923      0.8276       4.937       3.501      0.6516       6.735       2.181      6.3336E-02

     GA10        GA11        GA12        GA13        GA14        GA15        GA16        GA17        GA18    

   2.3242E-03  0.1281      0.5661       3.072       79.81       851.3      7.7592E-19  2.3197E-03  1.9612E-02

     GA19        GA20    

   3.5630E-03  6.5142E-04



                              INCREMENT NUMBER   281
                              FREQUENCY            19.0    



                              INCREMENT NUMBER   282
                              FREQUENCY            19.0    



                              INCREMENT NUMBER   283
                              FREQUENCY            19.0    



                              INCREMENT NUMBER   284
                              FREQUENCY            19.1    

  
  
  
  
                                       N O D E   O U T P U T
  
  
  
  
   THE FOLLOWING TABLE IS PRINTED FOR NODES BELONGING TO NODE SET N2
  
       NODE FOOT-   U2          UR3         V2          VR3         A2          AR3      
            NOTE
  
          2      1.8618E-07  2.4392E-05  2.6701E-03  0.3498       38.29       5017.     


                              INCREMENT NUMBER   285
                              FREQUENCY            19.1    



                              INCREMENT NUMBER   286
                              FREQUENCY            19.1    



                              INCREMENT NUMBER   287
                              FREQUENCY            19.1    



                              INCREMENT NUMBER   288
                              FREQUENCY            19.1    

  
  
  
  
                                       N O D E   O U T P U T
  
  
  
  
   THE FOLLOWING TABLE IS PRINTED FOR NODES BELONGING TO NODE SET N2
  
       NODE FOOT-   U2          UR3         V2          VR3         A2          AR3      
            NOTE
  
          2      1.1824E-07  1.1031E-05  1.7110E-03  0.1596       24.76       2310.     


                              INCREMENT NUMBER   289
                              FREQUENCY            19.2    



                              INCREMENT NUMBER   290
                              FREQUENCY            19.2    



                              INCREMENT NUMBER   291
                              FREQUENCY            19.2    



                              INCREMENT NUMBER   292
                              FREQUENCY            19.2    

  
  
  
  
                                       N O D E   O U T P U T
  
  
  
  
   THE FOLLOWING TABLE IS PRINTED FOR NODES BELONGING TO NODE SET N2
  
       NODE FOOT-   U2          UR3         V2          VR3         A2          AR3      
            NOTE
  
          2      5.5463E-08  2.4618E-06  8.1028E-04  3.5965E-02   11.84       525.4     


                              INCREMENT NUMBER   293
                              FREQUENCY            19.3    



                              INCREMENT NUMBER   294
                              FREQUENCY            19.3    



                              INCREMENT NUMBER   295
                              FREQUENCY            19.4    



                              INCREMENT NUMBER   296
                              FREQUENCY            19.7    

  
  
  
  
                                       N O D E   O U T P U T
  
  
  
  
   THE FOLLOWING TABLE IS PRINTED FOR NODES BELONGING TO NODE SET N2
  
       NODE FOOT-   U2          UR3         V2          VR3         A2          AR3      
            NOTE
  
          2      1.6161E-08  2.3858E-06  2.4816E-04  3.6635E-02   3.811       562.6     


                              INCREMENT NUMBER   297
                              FREQUENCY            19.8    



                              INCREMENT NUMBER   298
                              FREQUENCY            19.8    



                              INCREMENT NUMBER   299
                              FREQUENCY            19.9    



                              INCREMENT NUMBER   300
                              FREQUENCY            19.9    

  
  
  
  
                                       N O D E   O U T P U T
  
  
  
  
   THE FOLLOWING TABLE IS PRINTED FOR NODES BELONGING TO NODE SET N2
  
       NODE FOOT-   U2          UR3         V2          VR3         A2          AR3      
            NOTE
  
          2      1.6722E-08  2.1024E-06  2.6149E-04  3.2875E-02   4.089       514.1     





                                       M O D A L   O U T P U T

     GU1         GU2         GU3         GU4         GU5         GU6         GU7         GU8         GU9     

   1.7240E-10  1.8142E-08  2.3517E-08  4.6875E-09  6.9358E-11  1.3371E-09  3.9514E-10  1.0219E-08  1.8815E-08

     GU10        GU11        GU12        GU13        GU14        GU15        GU16        GU17        GU18    

   4.9909E-09  3.2960E-11  6.9027E-09  2.4850E-08  1.4711E-08  1.2174E-09  3.5265E-27  4.8504E-14  2.1727E-11

     GU19        GU20    

   1.2475E-10  4.7571E-11

     GV1         GV2         GV3         GV4         GV5         GV6         GV7         GV8         GV9     

   2.6959E-06  2.8368E-04  3.6774E-04  7.3298E-05  1.0845E-06  2.0908E-05  6.1788E-06  1.5980E-04  2.9420E-04

     GV10        GV11        GV12        GV13        GV14        GV15        GV16        GV17        GV18    

   7.8042E-05  5.1540E-07  1.0794E-04  3.8858E-04  2.3004E-04  1.9036E-05  5.5144E-23  7.5846E-10  3.3974E-07

     GV19        GV20    

   1.9507E-06  7.4387E-07

     GA1         GA2         GA3         GA4         GA5         GA6         GA7         GA8         GA9     

   4.2156E-02   4.436       5.750       1.146      1.6959E-02  0.3269      9.6619E-02   2.499       4.600    

     GA10        GA11        GA12        GA13        GA14        GA15        GA16        GA17        GA18    

    1.220      8.0594E-03   1.688       6.076       3.597      0.2977      8.6228E-19  1.1860E-05  5.3125E-03

     GA19        GA20    

   3.0503E-02  1.1632E-02



                              INCREMENT NUMBER   301
                              FREQUENCY            19.9    



                              INCREMENT NUMBER   302
                              FREQUENCY            19.9    



                              INCREMENT NUMBER   303
                              FREQUENCY            20.0    



                              INCREMENT NUMBER   304
                              FREQUENCY            20.0    

  
  
  
  
                                       N O D E   O U T P U T
  
  
  
  
   THE FOLLOWING TABLE IS PRINTED FOR NODES BELONGING TO NODE SET N2
  
       NODE FOOT-   U2          UR3         V2          VR3         A2          AR3      
            NOTE
  
          2      1.7196E-08  1.9169E-06  2.7112E-04  3.0222E-02   4.274       476.5     


                              INCREMENT NUMBER   305
                              FREQUENCY            20.0    




                                                  E L E M E N T   O U T P U T





   THE FOLLOWING TABLE IS PRINTED FOR ALL ELEMENTS WITH TYPE B23 AT THE INTEGRATION POINTS

    ELEMENT  PT FOOT-       SF1         SM1         
                NOTE 


 ALL VALUES IN THIS TABLE ARE ZERO
  
  
  
  
                                       N O D E   O U T P U T
  
  
  
  
   THE FOLLOWING TABLE IS PRINTED FOR NODES BELONGING TO NODE SET N2
  
       NODE FOOT-   U2          UR3         V2          VR3         A2          AR3      
            NOTE
  
          2      1.7299E-08  1.8793E-06  2.7318E-04  2.9677E-02   4.314       468.6     
  
  
  
   THE FOLLOWING TABLE IS PRINTED FOR ALL NODES
  
       NODE FOOT-   V2          VR3         A2          AR3      
            NOTE
  
          1       0.000      1.9639E-03   0.000       31.01     
          2      2.7318E-04  2.9677E-02   4.314       468.6     
          3      6.3851E-04  5.0037E-02   10.08       790.2     
          4      1.0568E-03  7.4917E-03   16.69       118.3     
          5       0.000      3.3243E-04   0.000       5.249     
          6      5.8359E-04  2.8303E-02   9.216       446.9     
          7      1.2439E-03  5.9961E-02   19.64       946.9     
          8      5.4194E-04  3.6228E-02   8.558       572.1     
          9       0.000      3.7591E-03   0.000       59.36     
         10      6.5915E-04  2.6056E-02   10.41       411.5     
         11      6.3374E-04  7.5230E-02   10.01       1188.     
         12      6.0729E-04  2.8381E-02   9.590       448.2     
         13       0.000      4.0359E-03   0.000       63.73     
         14      4.0989E-04  3.8674E-02   6.473       610.7     
         15      1.1599E-03  6.0498E-02   18.32       955.4     
         16      7.2676E-04  2.2988E-02   11.48       363.0     
         17       0.000      8.9589E-05   0.000       1.415     
         18      9.8564E-04  8.0292E-03   15.56       126.8     
         19      7.2944E-04  5.0352E-02   11.52       795.1     
         20      2.7271E-04  3.3293E-02   4.306       525.7     
         21       0.000      3.8109E-03   0.000       60.18     

 MAXIMUM         1.2439E-03  7.5230E-02   19.64       1188.    
 AT NODE                 7          11           7          11

 MINIMUM          0.000      8.9589E-05   0.000       1.415    
 AT NODE                 1          17           1          17
  
  
  
   THE FOLLOWING TABLE IS PRINTED FOR ALL NODES
  
       NODE FOOT-   RU2         RUR3        RV2         RVR3        RA2         RAR3     
            NOTE
  
          1       0.000      0.8679       0.000       20.05       0.000       1006.     
          2      0.1820      0.5289       3.212       8.249       119.7       551.8     
          3      0.2349      0.3867       2.779       16.33       81.66       725.2     
          4      0.1656      0.5537       3.098       8.343       127.2       438.9     
          5       0.000      0.6811       0.000       15.08       0.000       730.1     
          6      0.1301      0.3619       2.434       6.800       104.7       423.3     
          7      0.1589      0.3230       1.984       13.25       71.22       632.2     
          8      0.1123      0.3840       2.345       7.239       100.7       485.6     
          9       0.000      0.4921       0.000       13.76       0.000       788.3     
         10      9.9798E-02  0.3044       2.338       7.268       112.2       538.0     
         11      0.1245      0.3050       1.912       12.81       90.84       611.4     
         12      9.3229E-02  0.3139       2.272       7.842       109.7       596.1     
         13       0.000      0.4315       0.000       13.69       0.000       888.5     
         14      9.5428E-02  0.3469       2.102       7.948       105.2       608.6     
         15      0.1400      0.2877       1.933       11.30       98.23       547.2     
         16      0.1188      0.3185       2.173       8.279       103.0       647.9     
         17       0.000      0.6539       0.000       15.09       0.000       959.2     
         18      0.1670      0.5911       2.815       10.17       120.8       665.0     
         19      0.2478      0.3042       3.077       12.76       112.7       575.7     
         20      0.1884      0.5615       2.961       10.24       114.3       751.3     
         21       0.000      0.8821       0.000       19.24       0.000       1166.     

 MAXIMUM         0.2478      0.8821       3.212       20.05       127.2       1166.    
 AT NODE                19          21           2           1           4          21

 MINIMUM          0.000      0.2877       0.000       6.800       0.000       423.3    
 AT NODE                 1          15           1           6           1           6





                                       M O D A L   O U T P U T

     GU1         GU2         GU3         GU4         GU5         GU6         GU7         GU8         GU9     

   7.4498E-10  2.1289E-08  2.0335E-08  2.7004E-09  2.0025E-10  9.6231E-10  1.2515E-09  6.7155E-09  1.9420E-08

     GU10        GU11        GU12        GU13        GU14        GU15        GU16        GU17        GU18    

   7.2932E-09  1.0939E-10  7.1090E-09  2.0413E-08  7.9316E-09  2.8702E-09  3.8332E-27  1.4962E-13  1.3577E-11

     GU19        GU20    

   1.1861E-10  6.1544E-11

     GV1         GV2         GV3         GV4         GV5         GV6         GV7         GV8         GV9     

   1.1764E-05  3.3618E-04  3.2112E-04  4.2644E-05  3.1622E-06  1.5196E-05  1.9763E-05  1.0605E-04  3.0667E-04

     GV10        GV11        GV12        GV13        GV14        GV15        GV16        GV17        GV18    

   1.1517E-04  1.7274E-06  1.1226E-04  3.2236E-04  1.2525E-04  4.5324E-05  6.0531E-23  2.3627E-09  2.1440E-07

     GV19        GV20    

   1.8729E-06  9.7187E-07

     GA1         GA2         GA3         GA4         GA5         GA6         GA7         GA8         GA9     

   0.1858       5.309       5.071      0.6734      4.9936E-02  0.2400      0.3121       1.675       4.843    

     GA10        GA11        GA12        GA13        GA14        GA15        GA16        GA17        GA18    

    1.819      2.7279E-02   1.773       5.090       1.978      0.7157      9.5587E-19  3.7311E-05  3.3856E-03

     GA19        GA20    

   2.9576E-02  1.5347E-02



          THE ANALYSIS HAS BEEN COMPLETED



                              ANALYSIS COMPLETE
                              WITH      3 WARNING MESSAGES ON THE DAT FILE
                              AND      51 WARNING MESSAGES ON THE MSG FILE



     JOB TIME SUMMARY
       USER TIME (SEC)      =   2.9000    
       SYSTEM TIME (SEC)    =   1.0000    
       TOTAL CPU TIME (SEC) =   3.9000    
       WALLCLOCK TIME (SEC) =          4
