 Abaqus/Standard 6.14-1                  DATE 06-Feb-2016 TIME 15:27:05
 SUMMARY OF JOB INFORMATION:
 STEP  INC ATT SEVERE EQUIL TOTAL  TOTAL      STEP       INC OF       DOF    IF
               DISCON ITERS ITERS  TIME/    TIME/LPF    TIME/LPF    MONITOR RIKS
               ITERS               FREQ
   1     1   1     0     0     0  0.000      1.00e-036  1.000e-036
   2     1                        0.100    
   2     2                        0.127    
   2     3                        0.156    
   2     4                        0.187    
   2     5                        0.223    
   2     6                        0.262    
   2     7                        0.308    
   2     8                        0.364    
   2     9                        0.438    
   2    10                        0.560    
   2    11                        1.11     
   2    12                        1.23     
   2    13                        1.31     
   2    14                        1.36     
   2    15                        1.41     
   2    16                        1.45     
   2    17                        1.48     
   2    18                        1.52     
   2    19                        1.54     
   2    20                        1.57     
   2    21                        1.57     
   2    22                        1.58     
   2    23                        1.58     
   2    24                        1.59     
   2    25                        1.59     
   2    26                        1.60     
   2    27                        1.60     
   2    28                        1.61     
   2    29                        1.62     
   2    30                        1.69     
   2    31                        1.70     
   2    32                        1.71     
   2    33                        1.72     
   2    34                        1.72     
   2    35                        1.73     
   2    36                        1.73     
   2    37                        1.74     
   2    38                        1.74     
   2    39                        1.74     
   2    40                        1.75     
   2    41                        1.76     
   2    42                        1.77     
   2    43                        1.78     
   2    44                        1.79     
   2    45                        1.81     
   2    46                        1.82     
   2    47                        1.84     
   2    48                        1.88     
   2    49                        2.04     
   2    50                        2.08     
   2    51                        2.10     
   2    52                        2.12     
   2    53                        2.13     
   2    54                        2.14     
   2    55                        2.15     
   2    56                        2.16     
   2    57                        2.17     
   2    58                        2.18     
   2    59                        2.19     
   2    60                        2.20     
   2    61                        2.21     
   2    62                        2.23     
   2    63                        2.24     
   2    64                        2.26     
   2    65                        2.28     
   2    66                        2.31     
   2    67                        2.36     
   2    68                        2.57     
   2    69                        2.62     
   2    70                        2.65     
   2    71                        2.67     
   2    72                        2.68     
   2    73                        2.70     
   2    74                        2.71     
   2    75                        2.73     
   2    76                        2.74     
   2    77                        2.75     
   2    78                        2.76     
   2    79                        2.77     
   2    80                        2.78     
   2    81                        2.79     
   2    82                        2.81     
   2    83                        2.83     
   2    84                        2.85     
   2    85                        2.87     
   2    86                        2.92     
   2    87                        3.13     
   2    88                        3.17     
   2    89                        3.20     
   2    90                        3.22     
   2    91                        3.24     
   2    92                        3.25     
   2    93                        3.27     
   2    94                        3.28     
   2    95                        3.29     
   2    96                        3.30     
   2    97                        3.35     
   2    98                        3.41     
   2    99                        3.48     
   2   100                        3.55     
   2   101                        3.63     
   2   102                        3.73     
   2   103                        3.84     
   2   104                        3.99     
   2   105                        4.24     
   2   106                        5.37     
   2   107                        5.62     
   2   108                        5.77     
   2   109                        5.88     
   2   110                        5.98     
   2   111                        6.06     
   2   112                        6.13     
   2   113                        6.19     
   2   114                        6.25     
   2   115                        6.31     
   2   116                        6.32     
   2   117                        6.32     
   2   118                        6.33     
   2   119                        6.34     
   2   120                        6.35     
   2   121                        6.36     
   2   122                        6.37     
   2   123                        6.39     
   2   124                        6.42     
   2   125                        6.56     
   2   126                        6.59     
   2   127                        6.61     
   2   128                        6.62     
   2   129                        6.63     
   2   130                        6.64     
   2   131                        6.65     
   2   132                        6.66     
   2   133                        6.66     
   2   134                        6.67     
   2   135                        6.69     
   2   136                        6.70     
   2   137                        6.72     
   2   138                        6.74     
   2   139                        6.76     
   2   140                        6.79     
   2   141                        6.82     
   2   142                        6.86     
   2   143                        6.93     
   2   144                        7.25     
   2   145                        7.32     
   2   146                        7.36     
   2   147                        7.39     
   2   148                        7.42     
   2   149                        7.44     
   2   150                        7.46     
   2   151                        7.48     
   2   152                        7.49     
   2   153                        7.51     
   2   154                        7.53     
   2   155                        7.55     
   2   156                        7.57     
   2   157                        7.59     
   2   158                        7.62     
   2   159                        7.65     
   2   160                        7.69     
   2   161                        7.74     
   2   162                        7.82     
   2   163                        8.20     
   2   164                        8.28     
   2   165                        8.34     
   2   166                        8.37     
   2   167                        8.41     
   2   168                        8.43     
   2   169                        8.46     
   2   170                        8.48     
   2   171                        8.50     
   2   172                        8.52     
   2   173                        8.53     
   2   174                        8.55     
   2   175                        8.57     
   2   176                        8.60     
   2   177                        8.62     
   2   178                        8.65     
   2   179                        8.69     
   2   180                        8.73     
   2   181                        8.81     
   2   182                        9.17     
   2   183                        9.25     
   2   184                        9.29     
   2   185                        9.33     
   2   186                        9.36     
   2   187                        9.38     
   2   188                        9.41     
   2   189                        9.43     
   2   190                        9.45     
   2   191                        9.46     
   2   192                        9.55     
   2   193                        9.65     
   2   194                        9.76     
   2   195                        9.88     
   2   196                        10.0     
   2   197                        10.2     
   2   198                        10.4     
   2   199                        10.6     
   2   200                        11.0     
   2   201                        12.9     
   2   202                        13.3     
   2   203                        13.5     
   2   204                        13.7     
   2   205                        13.9     
   2   206                        14.0     
   2   207                        14.1     
   2   208                        14.2     
   2   209                        14.3     
   2   210                        14.4     
   2   211                        14.4     
   2   212                        14.4     
   2   213                        14.4     
   2   214                        14.5     
   2   215                        14.5     
   2   216                        14.5     
   2   217                        14.5     
   2   218                        14.5     
   2   219                        14.6     
   2   220                        14.8     
   2   221                        14.8     
   2   222                        14.9     
   2   223                        14.9     
   2   224                        14.9     
   2   225                        14.9     
   2   226                        14.9     
   2   227                        14.9     
   2   228                        15.0     
   2   229                        15.0     
   2   230                        15.0     
   2   231                        15.0     
   2   232                        15.0     
   2   233                        15.1     
   2   234                        15.1     
   2   235                        15.1     
   2   236                        15.2     
   2   237                        15.3     
   2   238                        15.4     
   2   239                        15.8     
   2   240                        16.0     
   2   241                        16.0     
   2   242                        16.1     
   2   243                        16.1     
   2   244                        16.1     
   2   245                        16.2     
   2   246                        16.2     
   2   247                        16.2     
   2   248                        16.2     
   2   249                        16.3     
   2   250                        16.3     
   2   251                        16.3     
   2   252                        16.4     
   2   253                        16.4     
   2   254                        16.5     
   2   255                        16.5     
   2   256                        16.6     
   2   257                        16.7     
   2   258                        17.3     
   2   259                        17.4     
   2   260                        17.5     
   2   261                        17.5     
   2   262                        17.6     
   2   263                        17.6     
   2   264                        17.7     
   2   265                        17.7     
   2   266                        17.7     
   2   267                        17.8     
   2   268                        17.8     
   2   269                        17.8     
   2   270                        17.8     
   2   271                        17.9     
   2   272                        17.9     
   2   273                        17.9     
   2   274                        18.0     
   2   275                        18.1     
   2   276                        18.2     
   2   277                        18.7     
   2   278                        18.8     
   2   279                        18.9     
   2   280                        18.9     
   2   281                        19.0     
   2   282                        19.0     
   2   283                        19.0     
   2   284                        19.1     
   2   285                        19.1     
   2   286                        19.1     
   2   287                        19.1     
   2   288                        19.1     
   2   289                        19.2     
   2   290                        19.2     
   2   291                        19.2     
   2   292                        19.2     
   2   293                        19.3     
   2   294                        19.3     
   2   295                        19.4     
   2   296                        19.7     
   2   297                        19.8     
   2   298                        19.8     
   2   299                        19.9     
   2   300                        19.9     
   2   301                        19.9     
   2   302                        19.9     
   2   303                        20.0     
   2   304                        20.0     
   2   305                        20.0     
                          
 THE ANALYSIS HAS COMPLETED SUCCESSFULLY
