*Heading
** Job name: Plate Model name: Model-1
** Generated by: Abaqus/CAE 6.14-1
*Preprint, echo=NO, model=NO, history=NO, contact=NO
**
** PARTS
**
*Part, name=Part-1
*End Part
**  
**
** ASSEMBLY
**
*Assembly, name=Assembly
**  
*Instance, name=Part-1-1, part=Part-1
*Node
      1,  0.675000012,  0.462500006,           0.
      2,  0.528750002,  0.462500006,           0.
      3,  0.382499993,  0.462500006,           0.
      4,  0.236249998,  0.462500006,           0.
      5, 0.0900000036,  0.462500006,           0.
      6, -0.0562499985,  0.462500006,           0.
      7, -0.202500001,  0.462500006,           0.
      8, -0.348749995,  0.462500006,           0.
      9, -0.495000005,  0.462500006,           0.
     10, -0.641250014,  0.462500006,           0.
     11, -0.787500024,  0.462500006,           0.
     12,  0.675000012,  0.320833325,           0.
     13,  0.528750002,  0.320833325,           0.
     14,  0.382499993,  0.320833325,           0.
     15,  0.236249998,  0.320833325,           0.
     16, 0.0900000036,  0.320833325,           0.
     17, -0.0562499985,  0.320833325,           0.
     18, -0.202500001,  0.320833325,           0.
     19, -0.348749995,  0.320833325,           0.
     20, -0.495000005,  0.320833325,           0.
** ... 57 like lines cut
*Element, type=S4R
 1,  1,  2, 13, 12
 2,  2,  3, 14, 13
 3,  3,  4, 15, 14
 4,  4,  5, 16, 15
 5,  5,  6, 17, 16
 6,  6,  7, 18, 17
 7,  7,  8, 19, 18
 8,  8,  9, 20, 19
 9,  9, 10, 21, 20
10, 10, 11, 22, 21
11, 12, 13, 24, 23
12, 13, 14, 25, 24
13, 14, 15, 26, 25
14, 15, 16, 27, 26
15, 16, 17, 28, 27
16, 17, 18, 29, 28
17, 18, 19, 30, 29
18, 19, 20, 31, 30
19, 20, 21, 32, 31
20, 21, 22, 33, 32
** ... 40 like lines cut
*Nset, nset=Set-1, generate
  1,  77,   1
*Elset, elset=Set-1, generate
  1,  60,   1
** Section: Section-1
*Shell Section, elset=Set-1, material=Material-1
0.005, 5
*End Instance
**  
*Nset, nset=Set-1, instance=Part-1-1
  1,  2,  3,  4,  5,  6,  7,  8,  9, 10, 11, 12, 22, 23, 33, 34
 44, 45, 55, 56, 66, 67, 68, 69, 70, 71, 72, 73, 74, 75, 76, 77
*Elset, elset=Set-1, instance=Part-1-1
  1,  2,  3,  4,  5,  6,  7,  8,  9, 10, 11, 20, 21, 30, 31, 40
 41, 50, 51, 52, 53, 54, 55, 56, 57, 58, 59, 60
*Elset, elset=_Surf-1_SPOS, internal, instance=Part-1-1, generate
  1,  60,   1
*Surface, type=ELEMENT, name=Surf-1
_Surf-1_SPOS, SPOS
*End Assembly
** 
** MATERIALS
** 
*Material, name=Material-1
*Density
2711.,
*Elastic
 6.78e+10, 0.33
** 
** BOUNDARY CONDITIONS
** 
** Name: BC-1 Type: Displacement/Rotation
*Boundary
Set-1, 1, 1
Set-1, 2, 2
Set-1, 3, 3
Set-1, 4, 4
Set-1, 5, 5
Set-1, 6, 6
** ----------------------------------------------------------------
** 
** STEP: Step-1
** 
*Step, name=Step-1, nlgeom=NO, perturbation
*Frequency, eigensolver=Lanczos, acoustic coupling=on, normalization=displacement
5, , , , , 
** 
** OUTPUT REQUESTS
** 
*Restart, write, frequency=0
** 
** FIELD OUTPUT: F-Output-1
** 
*Output, field, variable=PRESELECT
*End Step
** ----------------------------------------------------------------
** 
** STEP: Step-2
** 
*Step, name=Step-2, nlgeom=NO, perturbation
*Steady State Dynamics
0.1, 10., 20, 1.
** 
** LOADS
** 
** Name: Load-1   Type: Pressure
*Dsload, real
Surf-1, P, 1000.
** 
** OUTPUT REQUESTS
** 
** 
** FIELD OUTPUT: F-Output-2
** 
*Output, field, variable=PRESELECT
** 
** HISTORY OUTPUT: H-Output-1
** 
*Output, history, variable=PRESELECT
*End Step
