 Abaqus/Standard 6.14-1                  DATE 06-Feb-2016 TIME 15:02:55
 SUMMARY OF JOB INFORMATION:
 STEP  INC ATT SEVERE EQUIL TOTAL  TOTAL      STEP       INC OF       DOF    IF
               DISCON ITERS ITERS  TIME/    TIME/LPF    TIME/LPF    MONITOR RIKS
               ITERS               FREQ
   1     1   1     0     0     0  0.000      1.00e-036  1.000e-036
   2     1                        0.100    
   2     2                        0.127    
   2     3                        0.162    
   2     4                        0.207    
   2     5                        0.264    
   2     6                        0.336    
   2     7                        0.428    
   2     8                        0.546    
   2     9                        0.695    
   2    10                        0.886    
   2    11                        1.13     
   2    12                        1.44     
   2    13                        1.83     
   2    14                        2.34     
   2    15                        2.98     
   2    16                        3.79     
   2    17                        4.83     
   2    18                        6.16     
   2    19                        7.85     
   2    20                        10.0     
                          
 THE ANALYSIS HAS COMPLETED SUCCESSFULLY
