*Heading
** Job name: Job-1 Model name: Model-1
** Generated by: Abaqus/CAE 6.14-1
*Preprint, echo=NO, model=NO, history=NO, contact=NO
**
** PARTS
**
*Part, name=Part-1
*End Part
**  
**
** ASSEMBLY
**
*Assembly, name=Assembly
**  
*Instance, name=Part-1-1, part=Part-1
*Node
      1, -0.0179999992, 0.00063850783
      2, -0.00499694329, 0.000674808049
      3,  -2.38010834e-05, 0.00549994316
      4,  -7.74730797e-05, 0.0104999999
      5, -0.0179999992, 0.0104999999
      6, -0.0012150798, -0.00949999969
      7, -0.000939860765, -0.00441087177
      8, -0.00474341633, -0.00108113885
      9, -0.0179999992, -0.00949999969
     10, 0.0049394737, -0.000275628816
     11, 0.0179999992, -0.00130166777
     12, 0.0179999992, 0.0104999999
     13, 0.0179999992, -0.00949999969
     14, -0.0179999992, 0.00962383393
     15, -0.0179999992, 0.00871365145
     16, -0.0179999992, 0.00791834947
     17, -0.0179999992, 0.00726082828
     18, -0.0179999992, 0.00663247099
     19, -0.0179999992, 0.00602046074
     20, -0.0179999992, 0.00542691117
** ... 2162 like lines cut
*Element, type=CPS4R
   1,   15,   16,  385,  372
   2,   16,   17,  384,  385
   3,   17,   18,  383,  384
   4,   18,   19,  382,  383
   5,   19,   20,  381,  382
   6,   20,   21,  380,  381
   7,   21,   22,  379,  380
   8,   22,   23,  378,  379
   9,   23,   24,  377,  378
  10,   24,   25,  376,  377
  11,   25,   26,  375,  376
  12,   26,   27,  374,  375
  13,   27,   28,  373,  374
  14,   28,    1,   29,  373
  15,   29,   30,  420,  373
  16,   30,   31,  421,  420
  17,   31,   32,  422,  421
  18,   32,   33,  423,  422
  19,   33,   34,  424,  423
  20,   34,   35,  425,  424
** ... 2000 like lines cut
*Nset, nset=Set-1, generate
    1,  2182,     1
*Elset, elset=Set-1, generate
    1,  2020,     1
** Section: Section-1
*Solid Section, elset=Set-1, material=Al
1.,
*End Instance
**  
*Nset, nset=Set-1, instance=Part-1-1
   1,   5,   9,  14,  15,  16,  17,  18,  19,  20,  21,  22,  23,  24,  25,  26
  27,  28, 180, 181, 182, 183, 184, 185, 186, 187, 188, 189, 190, 191, 192, 193
*Elset, elset=Set-1, instance=Part-1-1
   1,   2,   3,   4,   5,   6,   7,   8,   9,  10,  11,  12,  13,  14, 481, 482
 912, 913, 914, 915, 916, 917, 918, 919, 920, 921, 922, 923, 924, 925, 926
*Elset, elset=_Surf-1_S2, internal, instance=Part-1-1
 1131, 1132, 1133, 1134, 1135, 1136, 1137, 1138, 1139, 1140, 1141, 1142, 1143, 1144, 1145, 1146
 1147, 1864
*Elset, elset=_Surf-1_S1, internal, instance=Part-1-1
 1148, 1865, 1866, 1867, 1868, 1869, 1870, 1871, 1872, 1873, 1874, 1875, 1876
*Surface, type=ELEMENT, name=Surf-1
_Surf-1_S2, S2
_Surf-1_S1, S1
*Elset, elset=_Surf-2_S2, internal, instance=Part-1-1
 1131, 1132, 1133, 1134, 1135, 1136, 1137, 1138, 1139, 1140, 1141, 1142, 1143, 1144, 1145, 1146
 1147, 1864
*Elset, elset=_Surf-2_S1, internal, instance=Part-1-1
 1148, 1865, 1866, 1867, 1868, 1869, 1870, 1871, 1872, 1873, 1874, 1875, 1876
*Surface, type=ELEMENT, name=Surf-2
_Surf-2_S2, S2
_Surf-2_S1, S1
*End Assembly
*Amplitude, name=Amp-1
             0.,              0.,              1.,              1.
** 
** MATERIALS
** 
*Material, name=Al
*Elastic
 6.865e+10, 0.2
*Plastic
 2.383e+08,    0.
  2.54e+08, 0.007
** 
** BOUNDARY CONDITIONS
** 
** Name: BC-1 Type: Displacement/Rotation
*Boundary
Set-1, 1, 1
Set-1, 2, 2
Set-1, 6, 6
** ----------------------------------------------------------------
** 
** STEP: Step-1
** 
*Step, name=Step-1, nlgeom=NO
*Static
0.1, 1., 1e-05, 0.1
** 
** LOADS
** 
** Name: Load-1   Type: Pressure
*Dsload
Surf-2, P, -1.19e+08
** 
** OUTPUT REQUESTS
** 
*Restart, write, frequency=0
** 
** FIELD OUTPUT: F-Output-1
** 
*Output, field, variable=PRESELECT
** 
** HISTORY OUTPUT: H-Output-1
** 
*Output, history, variable=PRESELECT
*End Step
