*Heading
** Job name: Job-1 Model name: Model-1
** Generated by: Abaqus/CAE 6.14-1
*Preprint, echo=NO, model=NO, history=NO, contact=NO
**
** PARTS
**
*Part, name=step_file-1
*End Part
**  
*Part, name=step_file-2
*End Part
**  
**
** ASSEMBLY
**
*Assembly, name=Assembly
**  
*Instance, name=step_file-1-1, part=step_file-1
*Node
      1,           1.,           0.,          2.5
      2,   0.90152663, 0.0131592453,          2.5
      3,    0.8029024, 0.0248859748,          2.5
      4,  0.704206407, 0.0352998897,          2.5
      5,   0.60537076, 0.0443441533,          2.5
      6,  0.506486833, 0.0517683998,          2.5
      7,  0.407498419, 0.0570910648,          2.5
      8,  0.308482647, 0.0594574921,          2.5
      9,  0.209486082, 0.0574759357,          2.5
     10,  0.110776611, 0.0482666492,          2.5
     11, 0.0420245379, 0.0328183249,          2.5
     12, 0.0112324478, 0.0179222729,          2.5
     13,           0.,           0.,          2.5
     14,           1.,           0.,    2.4000001
     15,  0.901528418, 0.0131590208,    2.4000001
     16,  0.802905619, 0.0248855986,    2.4000001
     17,  0.704210341,  0.035299506,    2.4000001
     18,  0.605375528, 0.0443437435,    2.4000001
     19,  0.506491601, 0.0517680906,    2.4000001
     20,  0.407502741, 0.0570908859,    2.4000001
** ... 643 like lines cut
*Element, type=S4R
  1,   1,   2,  15,  14
  2,   2,   3,  16,  15
  3,   3,   4,  17,  16
  4,   4,   5,  18,  17
  5,   5,   6,  19,  18
  6,   6,   7,  20,  19
  7,   7,   8,  21,  20
  8,   8,   9,  22,  21
  9,   9,  10,  23,  22
 10,  10,  11,  24,  23
 11,  11,  12,  25,  24
 12,  12,  13,  26,  25
 13,  14,  15,  28,  27
 14,  15,  16,  29,  28
 15,  16,  17,  30,  29
 16,  17,  18,  31,  30
 17,  18,  19,  32,  31
 18,  19,  20,  33,  32
 19,  20,  21,  34,  33
 20,  21,  22,  35,  34
** ... 580 like lines cut
*Nset, nset=Set-1, generate
   1,  663,    1
*Elset, elset=Set-1, generate
   1,  600,    1
** Section: Section-1
*Shell Section, elset=Set-1, material=Al
0.01, 5
*End Instance
**  
*Instance, name=step_file-2-1, part=step_file-2
*Node
      1,           0.,           0.,          2.5
      2,  0.010939288,   -0.0176994,          2.5
      3, 0.0411998145, -0.0325370394,          2.5
      4,  0.110906161, -0.0482861884,          2.5
      5,  0.209470227, -0.057475172,          2.5
      6,  0.308615476, -0.059456788,          2.5
      7,  0.407714248, -0.057082139,          2.5
      8,  0.506725252, -0.0517529212,          2.5
      9,  0.605607927, -0.0443237275,          2.5
     10,   0.70440197, -0.0352806561,          2.5
     11,  0.803063273, -0.0248673018,          2.5
     12,  0.901614785, -0.0131482193,          2.5
     13,           1.,           0.,          2.5
     14,           0.,           0.,    2.4000001
     15, 0.0109451348, -0.0177038796,    2.4000001
     16, 0.0412162989, -0.0325426981,    2.4000001
     17,  0.110903569, -0.0482857972,    2.4000001
     18,   0.20947054, -0.0574751869,    2.4000001
     19,  0.308612823, -0.0594568029,    2.4000001
     20,  0.407709926, -0.0570823178,    2.4000001
** ... 643 like lines cut
*Element, type=S4R
  1,   1,   2,  15,  14
  2,   2,   3,  16,  15
  3,   3,   4,  17,  16
  4,   4,   5,  18,  17
  5,   5,   6,  19,  18
  6,   6,   7,  20,  19
  7,   7,   8,  21,  20
  8,   8,   9,  22,  21
  9,   9,  10,  23,  22
 10,  10,  11,  24,  23
 11,  11,  12,  25,  24
 12,  12,  13,  26,  25
 13,  14,  15,  28,  27
 14,  15,  16,  29,  28
 15,  16,  17,  30,  29
 16,  17,  18,  31,  30
 17,  18,  19,  32,  31
 18,  19,  20,  33,  32
 19,  20,  21,  34,  33
 20,  21,  22,  35,  34
** ... 580 like lines cut
*Nset, nset=Set-1, generate
   1,  663,    1
*Elset, elset=Set-1, generate
   1,  600,    1
** Section: Section-1
*Shell Section, elset=Set-1, material=Al
0.01, 5
*End Instance
**  
*Nset, nset=Set-3, instance=step_file-1-1, generate
  13,  663,   13
*Elset, elset=Set-3, instance=step_file-1-1, generate
  12,  600,   12
*Nset, nset=Set-4, instance=step_file-2-1, generate
   1,  651,   13
*Elset, elset=Set-4, instance=step_file-2-1, generate
   1,  589,   12
*Nset, nset=Set-5, instance=step_file-1-1, generate
 651,  663,    1
*Nset, nset=Set-5, instance=step_file-2-1, generate
 651,  663,    1
*Elset, elset=Set-5, instance=step_file-1-1, generate
 589,  600,    1
*Elset, elset=Set-5, instance=step_file-2-1, generate
 589,  600,    1
*Nset, nset=Set-6, instance=step_file-1-1, generate
   1,  651,   13
*Elset, elset=Set-6, instance=step_file-1-1, generate
   1,  589,   12
*Nset, nset=Set-7, instance=step_file-2-1, generate
  13,  663,   13
*Elset, elset=Set-7, instance=step_file-2-1, generate
  12,  600,   12
*Nset, nset=m_Set-1, instance=step_file-2-1, generate
  13,  663,   13
*Elset, elset=m_Set-1, instance=step_file-2-1, generate
  12,  600,   12
*Nset, nset=s_Set-1, instance=step_file-2-1, generate
  13,  663,   13
*Elset, elset=s_Set-1, instance=step_file-2-1, generate
  12,  600,   12
*Surface, type=NODE, name=Set-3_CNS_, internal
Set-3, 1.
*Surface, type=NODE, name=Set-4_CNS_, internal
Set-4, 1.
*Surface, type=NODE, name=Set-6_CNS_, internal
Set-6, 1.
*Surface, type=NODE, name=Set-7_CNS_, internal
Set-7, 1.
** Constraint: Constraint-2
*Tie, name=Constraint-2, adjust=yes
Set-4_CNS_, Set-3_CNS_
** Constraint: Constraint-3
*Tie, name=Constraint-3, adjust=yes
Set-7_CNS_, Set-6_CNS_
*End Assembly
** 
** MATERIALS
** 
*Material, name=Al
*Density
2700.,
*Elastic
 6.89e+10, 0.33
** 
** BOUNDARY CONDITIONS
** 
** Name: BC-1 Type: Displacement/Rotation
*Boundary
Set-5, 1, 1
Set-5, 2, 2
Set-5, 3, 3
Set-5, 4, 4
Set-5, 5, 5
Set-5, 6, 6
** ----------------------------------------------------------------
** 
** STEP: Step-1
** 
*Step, name=Step-1, nlgeom=NO, perturbation
*Frequency, eigensolver=Lanczos, acoustic coupling=on, normalization=displacement
6, , , , , 
** 
** OUTPUT REQUESTS
** 
*Restart, write, frequency=0
** 
** FIELD OUTPUT: F-Output-1
** 
*Output, field, variable=PRESELECT
*End Step
