 Abaqus/Standard 6.14-1                  DATE 10-Jan-2016 TIME 19:46:57
 SUMMARY OF JOB INFORMATION:
 STEP  INC ATT SEVERE EQUIL TOTAL  TOTAL      STEP       INC OF       DOF    IF
               DISCON ITERS ITERS  TIME/    TIME/LPF    TIME/LPF    MONITOR RIKS
               ITERS               FREQ
   1     1   1     0     0     0  0.000      1.00e-036  1.000e-036
   2     1   1     0     0     0  0.000      0.000500   0.0005000 
   2     2   1     0     0     0  0.000      0.00100    0.0005000 
   2     3   1     0     0     0  0.000      0.00150    0.0005000 
   2     4   1     0     0     0  0.000      0.00200    0.0005000 
   2     5   1     0     0     0  0.000      0.00250    0.0005000 
   2     6   1     0     0     0  0.000      0.00300    0.0005000 
   2     7   1     0     0     0  0.000      0.00350    0.0005000 
   2     8   1     0     0     0  0.000      0.00400    0.0005000 
   2     9   1     0     0     0  0.000      0.00450    0.0005000 
   2    10   1     0     0     0  0.000      0.00500    0.0005000 
   2    11   1     0     0     0  0.000      0.00550    0.0005000 
   2    12   1     0     0     0  0.000      0.00600    0.0005000 
   2    13   1     0     0     0  0.000      0.00650    0.0005000 
   2    14   1     0     0     0  0.000      0.00700    0.0005000 
   2    15   1     0     0     0  0.000      0.00750    0.0005000 
   2    16   1     0     0     0  0.000      0.00800    0.0005000 
   2    17   1     0     0     0  0.000      0.00850    0.0005000 
   2    18   1     0     0     0  0.000      0.00900    0.0005000 
   2    19   1     0     0     0  0.000      0.00950    0.0005000 
   2    20   1     0     0     0  0.000      0.0100     0.0005000 
   2    21   1     0     0     0  0.000      0.0105     0.0005000 
   2    22   1     0     0     0  0.000      0.0110     0.0005000 
   2    23   1     0     0     0  0.000      0.0115     0.0005000 
   2    24   1     0     0     0  0.000      0.0120     0.0005000 
   2    25   1     0     0     0  0.000      0.0125     0.0005000 
   2    26   1     0     0     0  0.000      0.0130     0.0005000 
   2    27   1     0     0     0  0.000      0.0135     0.0005000 
   2    28   1     0     0     0  0.000      0.0140     0.0005000 
   2    29   1     0     0     0  0.000      0.0145     0.0005000 
   2    30   1     0     0     0  0.000      0.0150     0.0005000 
   2    31   1     0     0     0  0.000      0.0155     0.0005000 
   2    32   1     0     0     0  0.000      0.0160     0.0005000 
   2    33   1     0     0     0  0.000      0.0165     0.0005000 
   2    34   1     0     0     0  0.000      0.0170     0.0005000 
   2    35   1     0     0     0  0.000      0.0175     0.0005000 
   2    36   1     0     0     0  0.000      0.0180     0.0005000 
   2    37   1     0     0     0  0.000      0.0185     0.0005000 
   2    38   1     0     0     0  0.000      0.0190     0.0005000 
   2    39   1     0     0     0  0.000      0.0195     0.0005000 
   2    40   1     0     0     0  0.000      0.0200     0.0005000 
   2    41   1     0     0     0  0.000      0.0205     0.0005000 
   2    42   1     0     0     0  0.000      0.0210     0.0005000 
   2    43   1     0     0     0  0.000      0.0215     0.0005000 
   2    44   1     0     0     0  0.000      0.0220     0.0005000 
   2    45   1     0     0     0  0.000      0.0225     0.0005000 
   2    46   1     0     0     0  0.000      0.0230     0.0005000 
   2    47   1     0     0     0  0.000      0.0235     0.0005000 
   2    48   1     0     0     0  0.000      0.0240     0.0005000 
   2    49   1     0     0     0  0.000      0.0245     0.0005000 
   2    50   1     0     0     0  0.000      0.0250     0.0005000 
   2    51   1     0     0     0  0.000      0.0255     0.0005000 
   2    52   1     0     0     0  0.000      0.0260     0.0005000 
   2    53   1     0     0     0  0.000      0.0265     0.0005000 
   2    54   1     0     0     0  0.000      0.0270     0.0005000 
   2    55   1     0     0     0  0.000      0.0275     0.0005000 
   2    56   1     0     0     0  0.000      0.0280     0.0005000 
   2    57   1     0     0     0  0.000      0.0285     0.0005000 
   2    58   1     0     0     0  0.000      0.0290     0.0005000 
   2    59   1     0     0     0  0.000      0.0295     0.0005000 
   2    60   1     0     0     0  0.000      0.0300     0.0005000 
   2    61   1     0     0     0  0.000      0.0305     0.0005000 
   2    62   1     0     0     0  0.000      0.0310     0.0005000 
   2    63   1     0     0     0  0.000      0.0315     0.0005000 
   2    64   1     0     0     0  0.000      0.0320     0.0005000 
   2    65   1     0     0     0  0.000      0.0325     0.0005000 
   2    66   1     0     0     0  0.000      0.0330     0.0005000 
   2    67   1     0     0     0  0.000      0.0335     0.0005000 
   2    68   1     0     0     0  0.000      0.0340     0.0005000 
   2    69   1     0     0     0  0.000      0.0345     0.0005000 
   2    70   1     0     0     0  0.000      0.0350     0.0005000 
   2    71   1     0     0     0  0.000      0.0355     0.0005000 
   2    72   1     0     0     0  0.000      0.0360     0.0005000 
   2    73   1     0     0     0  0.000      0.0365     0.0005000 
   2    74   1     0     0     0  0.000      0.0370     0.0005000 
   2    75   1     0     0     0  0.000      0.0375     0.0005000 
   2    76   1     0     0     0  0.000      0.0380     0.0005000 
   2    77   1     0     0     0  0.000      0.0385     0.0005000 
   2    78   1     0     0     0  0.000      0.0390     0.0005000 
   2    79   1     0     0     0  0.000      0.0395     0.0005000 
   2    80   1     0     0     0  0.000      0.0400     0.0005000 
   2    81   1     0     0     0  0.000      0.0405     0.0005000 
   2    82   1     0     0     0  0.000      0.0410     0.0005000 
   2    83   1     0     0     0  0.000      0.0415     0.0005000 
   2    84   1     0     0     0  0.000      0.0420     0.0005000 
   2    85   1     0     0     0  0.000      0.0425     0.0005000 
   2    86   1     0     0     0  0.000      0.0430     0.0005000 
   2    87   1     0     0     0  0.000      0.0435     0.0005000 
   2    88   1     0     0     0  0.000      0.0440     0.0005000 
   2    89   1     0     0     0  0.000      0.0445     0.0005000 
   2    90   1     0     0     0  0.000      0.0450     0.0005000 
   2    91   1     0     0     0  0.000      0.0455     0.0005000 
   2    92   1     0     0     0  0.000      0.0460     0.0005000 
   2    93   1     0     0     0  0.000      0.0465     0.0005000 
   2    94   1     0     0     0  0.000      0.0470     0.0005000 
   2    95   1     0     0     0  0.000      0.0475     0.0005000 
   2    96   1     0     0     0  0.000      0.0480     0.0005000 
   2    97   1     0     0     0  0.000      0.0485     0.0005000 
   2    98   1     0     0     0  0.000      0.0490     0.0005000 
   2    99   1     0     0     0  0.000      0.0495     0.0005000 
   2   100   1     0     0     0  0.000      0.0500     0.0005000 
   3     1                        1.50e-008
   3     2                        3.06e-008
   3     3                        4.82e-008
   3     4                        6.56e-008
   3     5                        8.54e-008
   3     6                        1.05e-007
   3     7                        1.21e-007
   3     8                        1.41e-007
   3     9                        1.65e-007
   3    10                        1.94e-007
   3    11                        2.10e-007
   3    12                        2.29e-007
   3    13                        2.50e-007
   3    14                        2.73e-007
   3    15                        2.99e-007
   3    16                        3.28e-007
   3    17                        3.61e-007
   3    18                        3.98e-007
   3    19                        4.40e-007
   3    20                        4.88e-007
   3    21                        5.43e-007
   3    22                        6.06e-007
   3    23                        6.79e-007
   3    24                        7.64e-007
   3    25                        8.63e-007
   3    26                        9.80e-007
   3    27                        1.12e-006
   3    28                        1.28e-006
   3    29                        1.48e-006
   3    30                        1.72e-006
   3    31                        2.02e-006
   3    32                        2.40e-006
   3    33                        2.87e-006
   3    34                        3.48e-006
   3    35                        4.30e-006
   3    36                        5.40e-006
   3    37                        6.97e-006
   3    38                        9.28e-006
   3    39                        1.30e-005
   3    40                        1.94e-005
   3    41                        3.31e-005
   3    42                        8.00e-005
   3    43                        0.00432  
   3    44                        0.0104   
   3    45                        0.0178   
   3    46                        0.0267   
   3    47                        0.0372   
   3    48                        0.0496   
   3    49                        0.0639   
   3    50                        0.0804   
   3    51                        0.0991   
   3    52                        0.120    
   3    53                        0.144    
   3    54                        0.171    
   3    55                        0.200    
   3    56                        0.233    
   3    57                        0.269    
   3    58                        0.309    
   3    59                        0.353    
   3    60                        0.400    
   3    61                        0.452    
   3    62                        0.508    
   3    63                        0.570    
   3    64                        0.636    
   3    65                        0.708    
   3    66                        0.785    
   3    67                        0.868    
   3    68                        0.957    
   3    69                        1.05     
   3    70                        1.16     
   3    71                        1.27     
   3    72                        1.38     
   3    73                        1.51     
   3    74                        1.64     
   3    75                        1.78     
   3    76                        1.94     
   3    77                        2.10     
   3    78                        2.27     
   3    79                        2.45     
   3    80                        2.64     
   3    81                        2.84     
   3    82                        3.06     
   3    83                        3.29     
   3    84                        3.52     
   3    85                        3.78     
   3    86                        4.04     
   3    87                        4.33     
   3    88                        4.62     
   3    89                        4.93     
   3    90                        5.26     
   3    91                        5.61     
   3    92                        5.97     
   3    93                        6.35     
   3    94                        6.75     
   3    95                        7.16     
   3    96                        7.60     
   3    97                        8.06     
   3    98                        8.54     
   3    99                        9.04     
   3   100                        9.57     
   3   101                        10.1     
   3   102                        10.7     
   3   103                        11.3     
   3   104                        11.9     
   3   105                        12.6     
   3   106                        13.3     
   3   107                        14.0     
   3   108                        14.7     
   3   109                        15.5     
   3   110                        16.3     
   3   111                        17.1     
   3   112                        18.0     
   3   113                        18.9     
   3   114                        19.9     
   3   115                        20.9     
   3   116                        21.9     
   3   117                        22.9     
   3   118                        23.0     
   3   119                        23.1     
   3   120                        23.2     
   3   121                        23.3     
   3   122                        23.4     
   3   123                        23.5     
   3   124                        23.6     
   3   125                        23.7     
   3   126                        23.8     
   3   127                        23.9     
   3   128                        24.1     
   3   129                        24.2     
   3   130                        24.3     
   3   131                        24.4     
   3   132                        24.5     
   3   133                        24.6     
   3   134                        24.7     
   3   135                        24.9     
   3   136                        25.0     
   3   137                        25.1     
   3   138                        25.2     
   3   139                        25.4     
   3   140                        25.5     
   3   141                        25.6     
   3   142                        25.8     
   3   143                        25.9     
   3   144                        26.0     
   3   145                        26.2     
   3   146                        26.3     
   3   147                        26.5     
   3   148                        26.6     
   3   149                        26.8     
   3   150                        27.0     
   3   151                        27.1     
   3   152                        27.3     
   3   153                        27.5     
   3   154                        27.6     
   3   155                        27.8     
   3   156                        28.0     
   3   157                        28.2     
   3   158                        28.4     
   3   159                        28.6     
   3   160                        28.8     
   3   161                        29.0     
   3   162                        29.2     
   3   163                        29.4     
   3   164                        29.7     
   3   165                        29.9     
   3   166                        30.1     
   3   167                        30.4     
   3   168                        30.7     
   3   169                        30.9     
   3   170                        31.2     
   3   171                        31.5     
   3   172                        31.8     
   3   173                        32.2     
   3   174                        32.5     
   3   175                        32.9     
   3   176                        33.2     
   3   177                        33.6     
   3   178                        34.0     
   3   179                        34.5     
   3   180                        35.0     
   3   181                        35.5     
   3   182                        36.0     
   3   183                        36.6     
   3   184                        37.3     
   3   185                        38.0     
   3   186                        38.9     
   3   187                        39.8     
   3   188                        41.0     
   3   189                        42.5     
   3   190                        44.4     
   3   191                        47.9     
   3   192                        67.5     
   3   193                        72.9     
   3   194                        76.3     
   3   195                        79.0     
   3   196                        81.3     
   3   197                        83.3     
   3   198                        85.1     
   3   199                        86.8     
   3   200                        88.4     
   3   201                        89.9     
   3   202                        91.3     
   3   203                        92.6     
   3   204                        93.9     
   3   205                        95.1     
   3   206                        96.3     
   3   207                        97.5     
   3   208                        98.6     
   3   209                        99.7     
   3   210                        101.     
   3   211                        102.     
   3   212                        103.     
   3   213                        104.     
   3   214                        105.     
   3   215                        106.     
   3   216                        107.     
   3   217                        107.     
   3   218                        108.     
   3   219                        109.     
   3   220                        110.     
   3   221                        111.     
   3   222                        112.     
   3   223                        113.     
   3   224                        113.     
   3   225                        114.     
   3   226                        115.     
   3   227                        116.     
   3   228                        116.     
   3   229                        117.     
   3   230                        118.     
   3   231                        119.     
   3   232                        119.     
   3   233                        120.     
   3   234                        121.     
   3   235                        122.     
   3   236                        122.     
   3   237                        123.     
   3   238                        124.     
   3   239                        124.     
   3   240                        125.     
   3   241                        126.     
   3   242                        126.     
   3   243                        127.     
   3   244                        128.     
   3   245                        128.     
   3   246                        129.     
   3   247                        130.     
   3   248                        130.     
   3   249                        131.     
   3   250                        132.     
   3   251                        132.     
   3   252                        133.     
   3   253                        133.     
   3   254                        134.     
   3   255                        135.     
   3   256                        135.     
   3   257                        136.     
   3   258                        136.     
   3   259                        137.     
   3   260                        138.     
   3   261                        138.     
   3   262                        139.     
   3   263                        139.     
   3   264                        140.     
   3   265                        141.     
   3   266                        141.     
   3   267                        141.     
   3   268                        141.     
   3   269                        141.     
   3   270                        142.     
   3   271                        142.     
   3   272                        142.     
   3   273                        142.     
   3   274                        142.     
   3   275                        142.     
   3   276                        142.     
   3   277                        142.     
   3   278                        143.     
   3   279                        143.     
   3   280                        143.     
   3   281                        143.     
   3   282                        143.     
   3   283                        143.     
   3   284                        143.     
   3   285                        143.     
   3   286                        144.     
   3   287                        144.     
   3   288                        144.     
   3   289                        144.     
   3   290                        144.     
   3   291                        144.     
   3   292                        144.     
   3   293                        145.     
   3   294                        145.     
   3   295                        145.     
   3   296                        145.     
   3   297                        145.     
   3   298                        145.     
   3   299                        146.     
   3   300                        146.     
   3   301                        146.     
   3   302                        146.     
   3   303                        146.     
   3   304                        146.     
   3   305                        147.     
   3   306                        147.     
   3   307                        147.     
   3   308                        147.     
   3   309                        147.     
   3   310                        148.     
   3   311                        148.     
   3   312                        148.     
   3   313                        148.     
   3   314                        148.     
   3   315                        149.     
   3   316                        149.     
   3   317                        149.     
   3   318                        149.     
   3   319                        150.     
   3   320                        150.     
   3   321                        150.     
   3   322                        151.     
   3   323                        151.     
   3   324                        151.     
   3   325                        152.     
   3   326                        152.     
   3   327                        152.     
   3   328                        153.     
   3   329                        153.     
   3   330                        153.     
   3   331                        154.     
   3   332                        154.     
   3   333                        155.     
   3   334                        155.     
   3   335                        156.     
   3   336                        157.     
   3   337                        158.     
   3   338                        159.     
   3   339                        160.     
   3   340                        163.     
   3   341                        174.     
   3   342                        176.     
   3   343                        178.     
   3   344                        179.     
   3   345                        180.     
   3   346                        181.     
   3   347                        182.     
   3   348                        182.     
   3   349                        183.     
   3   350                        183.     
   3   351                        184.     
   3   352                        184.     
   3   353                        185.     
   3   354                        185.     
   3   355                        186.     
   3   356                        186.     
   3   357                        187.     
   3   358                        187.     
   3   359                        187.     
   3   360                        188.     
   3   361                        188.     
   3   362                        189.     
   3   363                        189.     
   3   364                        189.     
   3   365                        189.     
   3   366                        190.     
   3   367                        190.     
   3   368                        190.     
   3   369                        191.     
   3   370                        191.     
   3   371                        191.     
   3   372                        191.     
   3   373                        192.     
   3   374                        192.     
   3   375                        192.     
   3   376                        193.     
   3   377                        193.     
   3   378                        193.     
   3   379                        193.     
   3   380                        193.     
   3   381                        194.     
   3   382                        194.     
   3   383                        194.     
   3   384                        194.     
   3   385                        195.     
   3   386                        195.     
   3   387                        195.     
   3   388                        195.     
   3   389                        195.     
   3   390                        196.     
   3   391                        196.     
   3   392                        196.     
   3   393                        196.     
   3   394                        196.     
   3   395                        197.     
   3   396                        197.     
   3   397                        197.     
   3   398                        197.     
   3   399                        197.     
   3   400                        197.     
   3   401                        198.     
   3   402                        198.     
   3   403                        198.     
   3   404                        198.     
   3   405                        198.     
   3   406                        199.     
   3   407                        199.     
   3   408                        199.     
   3   409                        199.     
   3   410                        199.     
   3   411                        199.     
   3   412                        200.     
   3   413                        200.     
   3   414                        200.     
   3   415                        200.     
                          
 THE ANALYSIS HAS COMPLETED SUCCESSFULLY
