1

   Abaqus 6.14-1                                  Date 10-Jan-2016   Time 19:46:56
   For use by Supplied By SSQ under license from Dassault Systemes or its subsidiary.

                                                                                 
                                                                                 
 STEP    1     INCREMENT     1     STEP TIME    0.00    


                        S T E P       1     C A L C U L A T I O N   O F   E I G E N V A L U E S

                                            F O R   N A T U R A L   F R E Q U E N C I E S



                                                                                          

     THE LANCZOS EIGENSOLVER IS USED FOR THIS ANALYSIS
     Abaqus WILL COMPUTE UNCOUPLED
      STRUCTURAL AND ACOUSTIC MODES
     NUMBER OF EIGENVALUES                      5
     HIGHEST FREQUENCY OF INTEREST                  1.00000E+18
     MAXIMUM NUMBER OF STEPS WITHIN RUN               35
     BLOCK SIZE FOR LANCZOS PROCEDURE                  5
     THE EIGENVECTORS ARE SCALED SO THAT 
      THE LARGEST DISPLACEMENT ENTRY IN EACH VECTOR
      IS UNITY

     THIS IS A LINEAR PERTURBATION STEP.
     ALL LOADS ARE DEFINED AS CHANGE IN LOAD TO THE REFERENCE STATE

     EXTRAPOLATION WILL NOT BE USED

     CHARACTERISTIC ELEMENT LENGTH     7.895E-02

     DETAILS REGARDING ACTUAL SOLUTION WAVEFRONT REQUESTED

     DETAILED OUTPUT OF DIAGNOSTICS TO DATABASE REQUESTED

     PRINT OF INCREMENT NUMBER, TIME, ETC., TO THE MESSAGE FILE EVERY     1  INCREMENTS

     COLLECTING MODEL CONSTRAINT INFORMATION FOR OVERCONSTRAINT CHECKS

     COLLECTING STEP CONSTRAINT INFORMATION FOR OVERCONSTRAINT CHECKS

     CHECK POINT   START OF SOLVER    
  
 COMPUTER PRECISION USED BY ABAQUS      2.22045e-016
 CONVERGENCE CRITERION FOR LANCZOS RUN  1.81899e-012
  
 NUMBER OF EQUATIONS                                                          60
 NUMBER OF UNRESTRAINED DEGREES OF FREEDOM                                    57
 HEURISTIC SCALE FOR THE FIRST NONZERO EIGENVALUES (PROBLEM SCALE)  7.14665e+005
 INITIAL SHIFT VALUE                                                0.00000e+000
  
 NUMBER OF CPUS USED BY DIRECT SOLVER     1
  
 NUMBER OF NEGATIVE EIGENVALUES     0
 NUMBER OF POSITIVE EIGENVALUES    60
 NUMBER OF NEGATIVE EIGENVALUES NOT ASSOCIATED WITH LAGRANGE MULTIPLIERS     0
 NUMBER OF LAGRANGE MULTIPLIERS     0
  
 BLOCK SIZE WAS REDUCED. NEW BLOCK SIZE     3
  
 COMPUTATIONAL INTERVAL FOR THE INITIAL LANCZOS RUN
 
 EIGENVALUES NEEDED TO THE RIGHT OF SHIFT VALUE    5
 EIGENVALUES NEEDED TO THE LEFT OF SHIFT VALUE     0
 RIGHT BOUNDARY OF THE COMPUTATIONAL INTERVAL  3.95574e+037
 LEFT BOUNDARY OF THE COMPUTATIONAL INTERVAL  -3.95574e+037
  
 LANCZOS RUN TERMINATED. NUMBER OF STEPS:    6
 ALL THE EIGENVALUES REQUESTED ON THIS LANCZOS RUN ARE FOUND
  
 NUMBER OF ACCEPTED EIGENVALUES    5
  
 ACCEPTED EIGENVALUES
  2.07917e+004 7.86113e+005 5.83566e+006 2.08208e+007 2.78709e+007
  
 FACTORIZATION WITH NEW SHIFT VALUE IS REQUIRED
  
 TRUST INTERVALS AFTER LANCZOS RUN AND COMPRESSION
  
 NUMBER OF TRUST INTERVALS    1
  
 -------------------------------------------------------------------------------------
 | KEY | INSIDE |      INERTIAS     |  SENTINELS  |   OUTSIDE   |  NEED TO FIND      |
 |      ENDS OF INTERVAL     |     ENDS OF SENTINEL      |   COMPUTATIONAL INTERVAL  |
 -------------------------------------------------------------------------------------
 |  +  |      0 |        0        0 |     0     0 |     0     0 |      0     5       |
 |-3.95574e+037 0.00000e+000 |-3.95574e+037 0.00000e+000 |-3.95574e+037 3.95574e+037 |
 -------------------------------------------------------------------------------------
  
 DATA FOR CHOOSING SHIFT
  
 NUMBER OF EIGENVALUES NEEDED IN THE PRIMARY TRUST INTERVAL    5
  
 NUMBER OF MODES FORMING SENTINEL TO THE RIGHT    5
 SHIFT RIGHT        3.99854e+007
  
 NUMBER OF MODES FORMING SENTINEL TO THE LEFT     0
 SHIFT LEFT         0.00000e+000
  
 SHIFTING TO THE RIGHT DIRECTION
 NEW SHIFT          3.99854e+007
  
 NUMBER OF NEGATIVE EIGENVALUES     5
 NUMBER OF POSITIVE EIGENVALUES    55
 NUMBER OF NEGATIVE EIGENVALUES NOT ASSOCIATED WITH LAGRANGE MULTIPLIERS     5
 NUMBER OF LAGRANGE MULTIPLIERS     0
  
 THE REQUIRED NUMBER OF EIGENVALUES IS FOUND
  
 FINAL TRUST INTERVAL
  
 -------------------------------------------------------------------------------------
 | KEY | INSIDE |      INERTIAS     |  SENTINELS  |   OUTSIDE   |  NEED TO FIND      |
 |      ENDS OF INTERVAL     |     ENDS OF SENTINEL      |   COMPUTATIONAL INTERVAL  |
 -------------------------------------------------------------------------------------
 |  +  |      5 |        0        5 |     0     0 |     0     0 |      0     0       |
 |-3.95574e+037 3.99854e+007 |-3.95574e+037 3.99854e+007 |-3.95574e+037 3.99854e+007 |
 -------------------------------------------------------------------------------------
  
 FIRST EIGENVALUE REQUESTED BY THE USER     1
  
 EIGENVALUES REQUESTED BY THE USER
  2.07917e+004 7.86113e+005 5.83566e+006 2.08208e+007 2.78709e+007
  
 EIGENVALUE EXTRACTION USING THE LANCZOS EIGENSOLVER IS COMPLETE
 NUMBER OF LANCZOS RUNS       :   1
 NUMBER OF LANCZOS STEPS      :   6
 NUMBER OF FACTORIZATIONS     :   2
 NUMBER OF BACK SUBSTITUTIONS :   7

     CHECK POINT  END OF SOLVER       

       ELAPSED USER TIME (SEC)      =   0.0000    
       ELAPSED SYSTEM TIME (SEC)    =   0.0000    
       ELAPSED TOTAL CPU TIME (SEC) =   0.0000    
       ELAPSED WALLCLOCK TIME (SEC) =          1
1

   Abaqus 6.14-1                                  Date 10-Jan-2016   Time 19:46:57
   For use by Supplied By SSQ under license from Dassault Systemes or its subsidiary.

                                                                                 
 Modal_Dynamics                                                                  
 STEP    2     INCREMENT     1     STEP TIME   1.000E-36


                        S T E P       2     M O D A L   D Y N A M I C   A N A L Y S I S


          Modal_Dynamics                                                                  

          FIXED TIME INCREMENTS
          TIME INCREMENT IS                                    5.000E-04
          TIME PERIOD IS                                       5.000E-02

     THE MAXIMUM NUMBER OF INCREMENTS IN THIS STEP IS                     100

     THIS IS A LINEAR PERTURBATION STEP.
     ALL LOADS ARE DEFINED AS CHANGE IN LOAD TO THE REFERENCE STATE

     EXTRAPOLATION WILL NOT BE USED

     CHARACTERISTIC ELEMENT LENGTH     7.895E-02

     DETAILS REGARDING ACTUAL SOLUTION WAVEFRONT REQUESTED

     DETAILED OUTPUT OF DIAGNOSTICS TO DATABASE REQUESTED

     PRINT OF INCREMENT NUMBER, TIME, ETC., TO THE MESSAGE FILE EVERY     1  INCREMENTS


                                INCREMENT     1 SUMMARY


 TIME INCREMENT COMPLETED  5.000E-04,  FRACTION OF STEP COMPLETED  5.000E-04
 STEP TIME COMPLETED     

 ITERATION SUMMARY FOR THE INCREMENT:   0 TOTAL ITERATIONS, OF WHICH
   0 ARE SEVERE DISCONTINUITY ITERATIONS AND  0 ARE EQUILIBRIUM ITERATIONS.


                                INCREMENT     2 SUMMARY


 TIME INCREMENT COMPLETED  5.000E-04,  FRACTION OF STEP COMPLETED  1.000E-03
 STEP TIME COMPLETED     

 ITERATION SUMMARY FOR THE INCREMENT:   0 TOTAL ITERATIONS, OF WHICH
   0 ARE SEVERE DISCONTINUITY ITERATIONS AND  0 ARE EQUILIBRIUM ITERATIONS.


                                INCREMENT     3 SUMMARY


 TIME INCREMENT COMPLETED  5.000E-04,  FRACTION OF STEP COMPLETED  1.500E-03
 STEP TIME COMPLETED     

 ITERATION SUMMARY FOR THE INCREMENT:   0 TOTAL ITERATIONS, OF WHICH
   0 ARE SEVERE DISCONTINUITY ITERATIONS AND  0 ARE EQUILIBRIUM ITERATIONS.


                                INCREMENT     4 SUMMARY


 TIME INCREMENT COMPLETED  5.000E-04,  FRACTION OF STEP COMPLETED  2.000E-03
 STEP TIME COMPLETED     

 ITERATION SUMMARY FOR THE INCREMENT:   0 TOTAL ITERATIONS, OF WHICH
   0 ARE SEVERE DISCONTINUITY ITERATIONS AND  0 ARE EQUILIBRIUM ITERATIONS.


                                INCREMENT     5 SUMMARY


 TIME INCREMENT COMPLETED  5.000E-04,  FRACTION OF STEP COMPLETED  2.500E-03
 STEP TIME COMPLETED     

 ITERATION SUMMARY FOR THE INCREMENT:   0 TOTAL ITERATIONS, OF WHICH
   0 ARE SEVERE DISCONTINUITY ITERATIONS AND  0 ARE EQUILIBRIUM ITERATIONS.


                                INCREMENT     6 SUMMARY


 TIME INCREMENT COMPLETED  5.000E-04,  FRACTION OF STEP COMPLETED  3.000E-03
 STEP TIME COMPLETED     

 ITERATION SUMMARY FOR THE INCREMENT:   0 TOTAL ITERATIONS, OF WHICH
   0 ARE SEVERE DISCONTINUITY ITERATIONS AND  0 ARE EQUILIBRIUM ITERATIONS.


                                INCREMENT     7 SUMMARY


 TIME INCREMENT COMPLETED  5.000E-04,  FRACTION OF STEP COMPLETED  3.500E-03
 STEP TIME COMPLETED     

 ITERATION SUMMARY FOR THE INCREMENT:   0 TOTAL ITERATIONS, OF WHICH
   0 ARE SEVERE DISCONTINUITY ITERATIONS AND  0 ARE EQUILIBRIUM ITERATIONS.


                                INCREMENT     8 SUMMARY


 TIME INCREMENT COMPLETED  5.000E-04,  FRACTION OF STEP COMPLETED  4.000E-03
 STEP TIME COMPLETED     

 ITERATION SUMMARY FOR THE INCREMENT:   0 TOTAL ITERATIONS, OF WHICH
   0 ARE SEVERE DISCONTINUITY ITERATIONS AND  0 ARE EQUILIBRIUM ITERATIONS.


                                INCREMENT     9 SUMMARY


 TIME INCREMENT COMPLETED  5.000E-04,  FRACTION OF STEP COMPLETED  4.500E-03
 STEP TIME COMPLETED     

 ITERATION SUMMARY FOR THE INCREMENT:   0 TOTAL ITERATIONS, OF WHICH
   0 ARE SEVERE DISCONTINUITY ITERATIONS AND  0 ARE EQUILIBRIUM ITERATIONS.


                                INCREMENT    10 SUMMARY


 TIME INCREMENT COMPLETED  5.000E-04,  FRACTION OF STEP COMPLETED  5.000E-03
 STEP TIME COMPLETED     

 ITERATION SUMMARY FOR THE INCREMENT:   0 TOTAL ITERATIONS, OF WHICH
   0 ARE SEVERE DISCONTINUITY ITERATIONS AND  0 ARE EQUILIBRIUM ITERATIONS.


                                INCREMENT    11 SUMMARY


 TIME INCREMENT COMPLETED  5.000E-04,  FRACTION OF STEP COMPLETED  5.500E-03
 STEP TIME COMPLETED     

 ITERATION SUMMARY FOR THE INCREMENT:   0 TOTAL ITERATIONS, OF WHICH
   0 ARE SEVERE DISCONTINUITY ITERATIONS AND  0 ARE EQUILIBRIUM ITERATIONS.


                                INCREMENT    12 SUMMARY


 TIME INCREMENT COMPLETED  5.000E-04,  FRACTION OF STEP COMPLETED  6.000E-03
 STEP TIME COMPLETED     

 ITERATION SUMMARY FOR THE INCREMENT:   0 TOTAL ITERATIONS, OF WHICH
   0 ARE SEVERE DISCONTINUITY ITERATIONS AND  0 ARE EQUILIBRIUM ITERATIONS.


                                INCREMENT    13 SUMMARY


 TIME INCREMENT COMPLETED  5.000E-04,  FRACTION OF STEP COMPLETED  6.500E-03
 STEP TIME COMPLETED     

 ITERATION SUMMARY FOR THE INCREMENT:   0 TOTAL ITERATIONS, OF WHICH
   0 ARE SEVERE DISCONTINUITY ITERATIONS AND  0 ARE EQUILIBRIUM ITERATIONS.


                                INCREMENT    14 SUMMARY


 TIME INCREMENT COMPLETED  5.000E-04,  FRACTION OF STEP COMPLETED  7.000E-03
 STEP TIME COMPLETED     

 ITERATION SUMMARY FOR THE INCREMENT:   0 TOTAL ITERATIONS, OF WHICH
   0 ARE SEVERE DISCONTINUITY ITERATIONS AND  0 ARE EQUILIBRIUM ITERATIONS.


                                INCREMENT    15 SUMMARY


 TIME INCREMENT COMPLETED  5.000E-04,  FRACTION OF STEP COMPLETED  7.500E-03
 STEP TIME COMPLETED     

 ITERATION SUMMARY FOR THE INCREMENT:   0 TOTAL ITERATIONS, OF WHICH
   0 ARE SEVERE DISCONTINUITY ITERATIONS AND  0 ARE EQUILIBRIUM ITERATIONS.


                                INCREMENT    16 SUMMARY


 TIME INCREMENT COMPLETED  5.000E-04,  FRACTION OF STEP COMPLETED  8.000E-03
 STEP TIME COMPLETED     

 ITERATION SUMMARY FOR THE INCREMENT:   0 TOTAL ITERATIONS, OF WHICH
   0 ARE SEVERE DISCONTINUITY ITERATIONS AND  0 ARE EQUILIBRIUM ITERATIONS.


                                INCREMENT    17 SUMMARY


 TIME INCREMENT COMPLETED  5.000E-04,  FRACTION OF STEP COMPLETED  8.500E-03
 STEP TIME COMPLETED     

 ITERATION SUMMARY FOR THE INCREMENT:   0 TOTAL ITERATIONS, OF WHICH
   0 ARE SEVERE DISCONTINUITY ITERATIONS AND  0 ARE EQUILIBRIUM ITERATIONS.


                                INCREMENT    18 SUMMARY


 TIME INCREMENT COMPLETED  5.000E-04,  FRACTION OF STEP COMPLETED  9.000E-03
 STEP TIME COMPLETED     

 ITERATION SUMMARY FOR THE INCREMENT:   0 TOTAL ITERATIONS, OF WHICH
   0 ARE SEVERE DISCONTINUITY ITERATIONS AND  0 ARE EQUILIBRIUM ITERATIONS.


                                INCREMENT    19 SUMMARY


 TIME INCREMENT COMPLETED  5.000E-04,  FRACTION OF STEP COMPLETED  9.500E-03
 STEP TIME COMPLETED     

 ITERATION SUMMARY FOR THE INCREMENT:   0 TOTAL ITERATIONS, OF WHICH
   0 ARE SEVERE DISCONTINUITY ITERATIONS AND  0 ARE EQUILIBRIUM ITERATIONS.


                                INCREMENT    20 SUMMARY


 TIME INCREMENT COMPLETED  5.000E-04,  FRACTION OF STEP COMPLETED  1.000E-02
 STEP TIME COMPLETED     

 ITERATION SUMMARY FOR THE INCREMENT:   0 TOTAL ITERATIONS, OF WHICH
   0 ARE SEVERE DISCONTINUITY ITERATIONS AND  0 ARE EQUILIBRIUM ITERATIONS.


                                INCREMENT    21 SUMMARY


 TIME INCREMENT COMPLETED  5.000E-04,  FRACTION OF STEP COMPLETED  1.050E-02
 STEP TIME COMPLETED     

 ITERATION SUMMARY FOR THE INCREMENT:   0 TOTAL ITERATIONS, OF WHICH
   0 ARE SEVERE DISCONTINUITY ITERATIONS AND  0 ARE EQUILIBRIUM ITERATIONS.


                                INCREMENT    22 SUMMARY


 TIME INCREMENT COMPLETED  5.000E-04,  FRACTION OF STEP COMPLETED  1.100E-02
 STEP TIME COMPLETED     

 ITERATION SUMMARY FOR THE INCREMENT:   0 TOTAL ITERATIONS, OF WHICH
   0 ARE SEVERE DISCONTINUITY ITERATIONS AND  0 ARE EQUILIBRIUM ITERATIONS.


                                INCREMENT    23 SUMMARY


 TIME INCREMENT COMPLETED  5.000E-04,  FRACTION OF STEP COMPLETED  1.150E-02
 STEP TIME COMPLETED     

 ITERATION SUMMARY FOR THE INCREMENT:   0 TOTAL ITERATIONS, OF WHICH
   0 ARE SEVERE DISCONTINUITY ITERATIONS AND  0 ARE EQUILIBRIUM ITERATIONS.


                                INCREMENT    24 SUMMARY


 TIME INCREMENT COMPLETED  5.000E-04,  FRACTION OF STEP COMPLETED  1.200E-02
 STEP TIME COMPLETED     

 ITERATION SUMMARY FOR THE INCREMENT:   0 TOTAL ITERATIONS, OF WHICH
   0 ARE SEVERE DISCONTINUITY ITERATIONS AND  0 ARE EQUILIBRIUM ITERATIONS.


                                INCREMENT    25 SUMMARY


 TIME INCREMENT COMPLETED  5.000E-04,  FRACTION OF STEP COMPLETED  1.250E-02
 STEP TIME COMPLETED     

 ITERATION SUMMARY FOR THE INCREMENT:   0 TOTAL ITERATIONS, OF WHICH
   0 ARE SEVERE DISCONTINUITY ITERATIONS AND  0 ARE EQUILIBRIUM ITERATIONS.


                                INCREMENT    26 SUMMARY


 TIME INCREMENT COMPLETED  5.000E-04,  FRACTION OF STEP COMPLETED  1.300E-02
 STEP TIME COMPLETED     

 ITERATION SUMMARY FOR THE INCREMENT:   0 TOTAL ITERATIONS, OF WHICH
   0 ARE SEVERE DISCONTINUITY ITERATIONS AND  0 ARE EQUILIBRIUM ITERATIONS.


                                INCREMENT    27 SUMMARY


 TIME INCREMENT COMPLETED  5.000E-04,  FRACTION OF STEP COMPLETED  1.350E-02
 STEP TIME COMPLETED     

 ITERATION SUMMARY FOR THE INCREMENT:   0 TOTAL ITERATIONS, OF WHICH
   0 ARE SEVERE DISCONTINUITY ITERATIONS AND  0 ARE EQUILIBRIUM ITERATIONS.


                                INCREMENT    28 SUMMARY


 TIME INCREMENT COMPLETED  5.000E-04,  FRACTION OF STEP COMPLETED  1.400E-02
 STEP TIME COMPLETED     

 ITERATION SUMMARY FOR THE INCREMENT:   0 TOTAL ITERATIONS, OF WHICH
   0 ARE SEVERE DISCONTINUITY ITERATIONS AND  0 ARE EQUILIBRIUM ITERATIONS.


                                INCREMENT    29 SUMMARY


 TIME INCREMENT COMPLETED  5.000E-04,  FRACTION OF STEP COMPLETED  1.450E-02
 STEP TIME COMPLETED     

 ITERATION SUMMARY FOR THE INCREMENT:   0 TOTAL ITERATIONS, OF WHICH
   0 ARE SEVERE DISCONTINUITY ITERATIONS AND  0 ARE EQUILIBRIUM ITERATIONS.


                                INCREMENT    30 SUMMARY


 TIME INCREMENT COMPLETED  5.000E-04,  FRACTION OF STEP COMPLETED  1.500E-02
 STEP TIME COMPLETED     

 ITERATION SUMMARY FOR THE INCREMENT:   0 TOTAL ITERATIONS, OF WHICH
   0 ARE SEVERE DISCONTINUITY ITERATIONS AND  0 ARE EQUILIBRIUM ITERATIONS.


                                INCREMENT    31 SUMMARY


 TIME INCREMENT COMPLETED  5.000E-04,  FRACTION OF STEP COMPLETED  1.550E-02
 STEP TIME COMPLETED     

 ITERATION SUMMARY FOR THE INCREMENT:   0 TOTAL ITERATIONS, OF WHICH
   0 ARE SEVERE DISCONTINUITY ITERATIONS AND  0 ARE EQUILIBRIUM ITERATIONS.


                                INCREMENT    32 SUMMARY


 TIME INCREMENT COMPLETED  5.000E-04,  FRACTION OF STEP COMPLETED  1.600E-02
 STEP TIME COMPLETED     

 ITERATION SUMMARY FOR THE INCREMENT:   0 TOTAL ITERATIONS, OF WHICH
   0 ARE SEVERE DISCONTINUITY ITERATIONS AND  0 ARE EQUILIBRIUM ITERATIONS.


                                INCREMENT    33 SUMMARY


 TIME INCREMENT COMPLETED  5.000E-04,  FRACTION OF STEP COMPLETED  1.650E-02
 STEP TIME COMPLETED     

 ITERATION SUMMARY FOR THE INCREMENT:   0 TOTAL ITERATIONS, OF WHICH
   0 ARE SEVERE DISCONTINUITY ITERATIONS AND  0 ARE EQUILIBRIUM ITERATIONS.


                                INCREMENT    34 SUMMARY


 TIME INCREMENT COMPLETED  5.000E-04,  FRACTION OF STEP COMPLETED  1.700E-02
 STEP TIME COMPLETED     

 ITERATION SUMMARY FOR THE INCREMENT:   0 TOTAL ITERATIONS, OF WHICH
   0 ARE SEVERE DISCONTINUITY ITERATIONS AND  0 ARE EQUILIBRIUM ITERATIONS.


                                INCREMENT    35 SUMMARY


 TIME INCREMENT COMPLETED  5.000E-04,  FRACTION OF STEP COMPLETED  1.750E-02
 STEP TIME COMPLETED     

 ITERATION SUMMARY FOR THE INCREMENT:   0 TOTAL ITERATIONS, OF WHICH
   0 ARE SEVERE DISCONTINUITY ITERATIONS AND  0 ARE EQUILIBRIUM ITERATIONS.


                                INCREMENT    36 SUMMARY


 TIME INCREMENT COMPLETED  5.000E-04,  FRACTION OF STEP COMPLETED  1.800E-02
 STEP TIME COMPLETED     

 ITERATION SUMMARY FOR THE INCREMENT:   0 TOTAL ITERATIONS, OF WHICH
   0 ARE SEVERE DISCONTINUITY ITERATIONS AND  0 ARE EQUILIBRIUM ITERATIONS.


                                INCREMENT    37 SUMMARY


 TIME INCREMENT COMPLETED  5.000E-04,  FRACTION OF STEP COMPLETED  1.850E-02
 STEP TIME COMPLETED     

 ITERATION SUMMARY FOR THE INCREMENT:   0 TOTAL ITERATIONS, OF WHICH
   0 ARE SEVERE DISCONTINUITY ITERATIONS AND  0 ARE EQUILIBRIUM ITERATIONS.


                                INCREMENT    38 SUMMARY


 TIME INCREMENT COMPLETED  5.000E-04,  FRACTION OF STEP COMPLETED  1.900E-02
 STEP TIME COMPLETED     

 ITERATION SUMMARY FOR THE INCREMENT:   0 TOTAL ITERATIONS, OF WHICH
   0 ARE SEVERE DISCONTINUITY ITERATIONS AND  0 ARE EQUILIBRIUM ITERATIONS.


                                INCREMENT    39 SUMMARY


 TIME INCREMENT COMPLETED  5.000E-04,  FRACTION OF STEP COMPLETED  1.950E-02
 STEP TIME COMPLETED     

 ITERATION SUMMARY FOR THE INCREMENT:   0 TOTAL ITERATIONS, OF WHICH
   0 ARE SEVERE DISCONTINUITY ITERATIONS AND  0 ARE EQUILIBRIUM ITERATIONS.


                                INCREMENT    40 SUMMARY


 TIME INCREMENT COMPLETED  5.000E-04,  FRACTION OF STEP COMPLETED  2.000E-02
 STEP TIME COMPLETED     

 ITERATION SUMMARY FOR THE INCREMENT:   0 TOTAL ITERATIONS, OF WHICH
   0 ARE SEVERE DISCONTINUITY ITERATIONS AND  0 ARE EQUILIBRIUM ITERATIONS.


                                INCREMENT    41 SUMMARY


 TIME INCREMENT COMPLETED  5.000E-04,  FRACTION OF STEP COMPLETED  2.050E-02
 STEP TIME COMPLETED     

 ITERATION SUMMARY FOR THE INCREMENT:   0 TOTAL ITERATIONS, OF WHICH
   0 ARE SEVERE DISCONTINUITY ITERATIONS AND  0 ARE EQUILIBRIUM ITERATIONS.


                                INCREMENT    42 SUMMARY


 TIME INCREMENT COMPLETED  5.000E-04,  FRACTION OF STEP COMPLETED  2.100E-02
 STEP TIME COMPLETED     

 ITERATION SUMMARY FOR THE INCREMENT:   0 TOTAL ITERATIONS, OF WHICH
   0 ARE SEVERE DISCONTINUITY ITERATIONS AND  0 ARE EQUILIBRIUM ITERATIONS.


                                INCREMENT    43 SUMMARY


 TIME INCREMENT COMPLETED  5.000E-04,  FRACTION OF STEP COMPLETED  2.150E-02
 STEP TIME COMPLETED     

 ITERATION SUMMARY FOR THE INCREMENT:   0 TOTAL ITERATIONS, OF WHICH
   0 ARE SEVERE DISCONTINUITY ITERATIONS AND  0 ARE EQUILIBRIUM ITERATIONS.


                                INCREMENT    44 SUMMARY


 TIME INCREMENT COMPLETED  5.000E-04,  FRACTION OF STEP COMPLETED  2.200E-02
 STEP TIME COMPLETED     

 ITERATION SUMMARY FOR THE INCREMENT:   0 TOTAL ITERATIONS, OF WHICH
   0 ARE SEVERE DISCONTINUITY ITERATIONS AND  0 ARE EQUILIBRIUM ITERATIONS.


                                INCREMENT    45 SUMMARY


 TIME INCREMENT COMPLETED  5.000E-04,  FRACTION OF STEP COMPLETED  2.250E-02
 STEP TIME COMPLETED     

 ITERATION SUMMARY FOR THE INCREMENT:   0 TOTAL ITERATIONS, OF WHICH
   0 ARE SEVERE DISCONTINUITY ITERATIONS AND  0 ARE EQUILIBRIUM ITERATIONS.


                                INCREMENT    46 SUMMARY


 TIME INCREMENT COMPLETED  5.000E-04,  FRACTION OF STEP COMPLETED  2.300E-02
 STEP TIME COMPLETED     

 ITERATION SUMMARY FOR THE INCREMENT:   0 TOTAL ITERATIONS, OF WHICH
   0 ARE SEVERE DISCONTINUITY ITERATIONS AND  0 ARE EQUILIBRIUM ITERATIONS.


                                INCREMENT    47 SUMMARY


 TIME INCREMENT COMPLETED  5.000E-04,  FRACTION OF STEP COMPLETED  2.350E-02
 STEP TIME COMPLETED     

 ITERATION SUMMARY FOR THE INCREMENT:   0 TOTAL ITERATIONS, OF WHICH
   0 ARE SEVERE DISCONTINUITY ITERATIONS AND  0 ARE EQUILIBRIUM ITERATIONS.


                                INCREMENT    48 SUMMARY


 TIME INCREMENT COMPLETED  5.000E-04,  FRACTION OF STEP COMPLETED  2.400E-02
 STEP TIME COMPLETED     

 ITERATION SUMMARY FOR THE INCREMENT:   0 TOTAL ITERATIONS, OF WHICH
   0 ARE SEVERE DISCONTINUITY ITERATIONS AND  0 ARE EQUILIBRIUM ITERATIONS.


                                INCREMENT    49 SUMMARY


 TIME INCREMENT COMPLETED  5.000E-04,  FRACTION OF STEP COMPLETED  2.450E-02
 STEP TIME COMPLETED     

 ITERATION SUMMARY FOR THE INCREMENT:   0 TOTAL ITERATIONS, OF WHICH
   0 ARE SEVERE DISCONTINUITY ITERATIONS AND  0 ARE EQUILIBRIUM ITERATIONS.


                                INCREMENT    50 SUMMARY


 TIME INCREMENT COMPLETED  5.000E-04,  FRACTION OF STEP COMPLETED  2.500E-02
 STEP TIME COMPLETED     

 ITERATION SUMMARY FOR THE INCREMENT:   0 TOTAL ITERATIONS, OF WHICH
   0 ARE SEVERE DISCONTINUITY ITERATIONS AND  0 ARE EQUILIBRIUM ITERATIONS.


                                INCREMENT    51 SUMMARY


 TIME INCREMENT COMPLETED  5.000E-04,  FRACTION OF STEP COMPLETED  2.550E-02
 STEP TIME COMPLETED     

 ITERATION SUMMARY FOR THE INCREMENT:   0 TOTAL ITERATIONS, OF WHICH
   0 ARE SEVERE DISCONTINUITY ITERATIONS AND  0 ARE EQUILIBRIUM ITERATIONS.


                                INCREMENT    52 SUMMARY


 TIME INCREMENT COMPLETED  5.000E-04,  FRACTION OF STEP COMPLETED  2.600E-02
 STEP TIME COMPLETED     

 ITERATION SUMMARY FOR THE INCREMENT:   0 TOTAL ITERATIONS, OF WHICH
   0 ARE SEVERE DISCONTINUITY ITERATIONS AND  0 ARE EQUILIBRIUM ITERATIONS.


                                INCREMENT    53 SUMMARY


 TIME INCREMENT COMPLETED  5.000E-04,  FRACTION OF STEP COMPLETED  2.650E-02
 STEP TIME COMPLETED     

 ITERATION SUMMARY FOR THE INCREMENT:   0 TOTAL ITERATIONS, OF WHICH
   0 ARE SEVERE DISCONTINUITY ITERATIONS AND  0 ARE EQUILIBRIUM ITERATIONS.


                                INCREMENT    54 SUMMARY


 TIME INCREMENT COMPLETED  5.000E-04,  FRACTION OF STEP COMPLETED  2.700E-02
 STEP TIME COMPLETED     

 ITERATION SUMMARY FOR THE INCREMENT:   0 TOTAL ITERATIONS, OF WHICH
   0 ARE SEVERE DISCONTINUITY ITERATIONS AND  0 ARE EQUILIBRIUM ITERATIONS.


                                INCREMENT    55 SUMMARY


 TIME INCREMENT COMPLETED  5.000E-04,  FRACTION OF STEP COMPLETED  2.750E-02
 STEP TIME COMPLETED     

 ITERATION SUMMARY FOR THE INCREMENT:   0 TOTAL ITERATIONS, OF WHICH
   0 ARE SEVERE DISCONTINUITY ITERATIONS AND  0 ARE EQUILIBRIUM ITERATIONS.


                                INCREMENT    56 SUMMARY


 TIME INCREMENT COMPLETED  5.000E-04,  FRACTION OF STEP COMPLETED  2.800E-02
 STEP TIME COMPLETED     

 ITERATION SUMMARY FOR THE INCREMENT:   0 TOTAL ITERATIONS, OF WHICH
   0 ARE SEVERE DISCONTINUITY ITERATIONS AND  0 ARE EQUILIBRIUM ITERATIONS.


                                INCREMENT    57 SUMMARY


 TIME INCREMENT COMPLETED  5.000E-04,  FRACTION OF STEP COMPLETED  2.850E-02
 STEP TIME COMPLETED     

 ITERATION SUMMARY FOR THE INCREMENT:   0 TOTAL ITERATIONS, OF WHICH
   0 ARE SEVERE DISCONTINUITY ITERATIONS AND  0 ARE EQUILIBRIUM ITERATIONS.


                                INCREMENT    58 SUMMARY


 TIME INCREMENT COMPLETED  5.000E-04,  FRACTION OF STEP COMPLETED  2.900E-02
 STEP TIME COMPLETED     

 ITERATION SUMMARY FOR THE INCREMENT:   0 TOTAL ITERATIONS, OF WHICH
   0 ARE SEVERE DISCONTINUITY ITERATIONS AND  0 ARE EQUILIBRIUM ITERATIONS.


                                INCREMENT    59 SUMMARY


 TIME INCREMENT COMPLETED  5.000E-04,  FRACTION OF STEP COMPLETED  2.950E-02
 STEP TIME COMPLETED     

 ITERATION SUMMARY FOR THE INCREMENT:   0 TOTAL ITERATIONS, OF WHICH
   0 ARE SEVERE DISCONTINUITY ITERATIONS AND  0 ARE EQUILIBRIUM ITERATIONS.


                                INCREMENT    60 SUMMARY


 TIME INCREMENT COMPLETED  5.000E-04,  FRACTION OF STEP COMPLETED  3.000E-02
 STEP TIME COMPLETED     

 ITERATION SUMMARY FOR THE INCREMENT:   0 TOTAL ITERATIONS, OF WHICH
   0 ARE SEVERE DISCONTINUITY ITERATIONS AND  0 ARE EQUILIBRIUM ITERATIONS.


                                INCREMENT    61 SUMMARY


 TIME INCREMENT COMPLETED  5.000E-04,  FRACTION OF STEP COMPLETED  3.050E-02
 STEP TIME COMPLETED     

 ITERATION SUMMARY FOR THE INCREMENT:   0 TOTAL ITERATIONS, OF WHICH
   0 ARE SEVERE DISCONTINUITY ITERATIONS AND  0 ARE EQUILIBRIUM ITERATIONS.


                                INCREMENT    62 SUMMARY


 TIME INCREMENT COMPLETED  5.000E-04,  FRACTION OF STEP COMPLETED  3.100E-02
 STEP TIME COMPLETED     

 ITERATION SUMMARY FOR THE INCREMENT:   0 TOTAL ITERATIONS, OF WHICH
   0 ARE SEVERE DISCONTINUITY ITERATIONS AND  0 ARE EQUILIBRIUM ITERATIONS.


                                INCREMENT    63 SUMMARY


 TIME INCREMENT COMPLETED  5.000E-04,  FRACTION OF STEP COMPLETED  3.150E-02
 STEP TIME COMPLETED     

 ITERATION SUMMARY FOR THE INCREMENT:   0 TOTAL ITERATIONS, OF WHICH
   0 ARE SEVERE DISCONTINUITY ITERATIONS AND  0 ARE EQUILIBRIUM ITERATIONS.


                                INCREMENT    64 SUMMARY


 TIME INCREMENT COMPLETED  5.000E-04,  FRACTION OF STEP COMPLETED  3.200E-02
 STEP TIME COMPLETED     

 ITERATION SUMMARY FOR THE INCREMENT:   0 TOTAL ITERATIONS, OF WHICH
   0 ARE SEVERE DISCONTINUITY ITERATIONS AND  0 ARE EQUILIBRIUM ITERATIONS.


                                INCREMENT    65 SUMMARY


 TIME INCREMENT COMPLETED  5.000E-04,  FRACTION OF STEP COMPLETED  3.250E-02
 STEP TIME COMPLETED     

 ITERATION SUMMARY FOR THE INCREMENT:   0 TOTAL ITERATIONS, OF WHICH
   0 ARE SEVERE DISCONTINUITY ITERATIONS AND  0 ARE EQUILIBRIUM ITERATIONS.


                                INCREMENT    66 SUMMARY


 TIME INCREMENT COMPLETED  5.000E-04,  FRACTION OF STEP COMPLETED  3.300E-02
 STEP TIME COMPLETED     

 ITERATION SUMMARY FOR THE INCREMENT:   0 TOTAL ITERATIONS, OF WHICH
   0 ARE SEVERE DISCONTINUITY ITERATIONS AND  0 ARE EQUILIBRIUM ITERATIONS.


                                INCREMENT    67 SUMMARY


 TIME INCREMENT COMPLETED  5.000E-04,  FRACTION OF STEP COMPLETED  3.350E-02
 STEP TIME COMPLETED     

 ITERATION SUMMARY FOR THE INCREMENT:   0 TOTAL ITERATIONS, OF WHICH
   0 ARE SEVERE DISCONTINUITY ITERATIONS AND  0 ARE EQUILIBRIUM ITERATIONS.


                                INCREMENT    68 SUMMARY


 TIME INCREMENT COMPLETED  5.000E-04,  FRACTION OF STEP COMPLETED  3.400E-02
 STEP TIME COMPLETED     

 ITERATION SUMMARY FOR THE INCREMENT:   0 TOTAL ITERATIONS, OF WHICH
   0 ARE SEVERE DISCONTINUITY ITERATIONS AND  0 ARE EQUILIBRIUM ITERATIONS.


                                INCREMENT    69 SUMMARY


 TIME INCREMENT COMPLETED  5.000E-04,  FRACTION OF STEP COMPLETED  3.450E-02
 STEP TIME COMPLETED     

 ITERATION SUMMARY FOR THE INCREMENT:   0 TOTAL ITERATIONS, OF WHICH
   0 ARE SEVERE DISCONTINUITY ITERATIONS AND  0 ARE EQUILIBRIUM ITERATIONS.


                                INCREMENT    70 SUMMARY


 TIME INCREMENT COMPLETED  5.000E-04,  FRACTION OF STEP COMPLETED  3.500E-02
 STEP TIME COMPLETED     

 ITERATION SUMMARY FOR THE INCREMENT:   0 TOTAL ITERATIONS, OF WHICH
   0 ARE SEVERE DISCONTINUITY ITERATIONS AND  0 ARE EQUILIBRIUM ITERATIONS.


                                INCREMENT    71 SUMMARY


 TIME INCREMENT COMPLETED  5.000E-04,  FRACTION OF STEP COMPLETED  3.550E-02
 STEP TIME COMPLETED     

 ITERATION SUMMARY FOR THE INCREMENT:   0 TOTAL ITERATIONS, OF WHICH
   0 ARE SEVERE DISCONTINUITY ITERATIONS AND  0 ARE EQUILIBRIUM ITERATIONS.


                                INCREMENT    72 SUMMARY


 TIME INCREMENT COMPLETED  5.000E-04,  FRACTION OF STEP COMPLETED  3.600E-02
 STEP TIME COMPLETED     

 ITERATION SUMMARY FOR THE INCREMENT:   0 TOTAL ITERATIONS, OF WHICH
   0 ARE SEVERE DISCONTINUITY ITERATIONS AND  0 ARE EQUILIBRIUM ITERATIONS.


                                INCREMENT    73 SUMMARY


 TIME INCREMENT COMPLETED  5.000E-04,  FRACTION OF STEP COMPLETED  3.650E-02
 STEP TIME COMPLETED     

 ITERATION SUMMARY FOR THE INCREMENT:   0 TOTAL ITERATIONS, OF WHICH
   0 ARE SEVERE DISCONTINUITY ITERATIONS AND  0 ARE EQUILIBRIUM ITERATIONS.


                                INCREMENT    74 SUMMARY


 TIME INCREMENT COMPLETED  5.000E-04,  FRACTION OF STEP COMPLETED  3.700E-02
 STEP TIME COMPLETED     

 ITERATION SUMMARY FOR THE INCREMENT:   0 TOTAL ITERATIONS, OF WHICH
   0 ARE SEVERE DISCONTINUITY ITERATIONS AND  0 ARE EQUILIBRIUM ITERATIONS.


                                INCREMENT    75 SUMMARY


 TIME INCREMENT COMPLETED  5.000E-04,  FRACTION OF STEP COMPLETED  3.750E-02
 STEP TIME COMPLETED     

 ITERATION SUMMARY FOR THE INCREMENT:   0 TOTAL ITERATIONS, OF WHICH
   0 ARE SEVERE DISCONTINUITY ITERATIONS AND  0 ARE EQUILIBRIUM ITERATIONS.


                                INCREMENT    76 SUMMARY


 TIME INCREMENT COMPLETED  5.000E-04,  FRACTION OF STEP COMPLETED  3.800E-02
 STEP TIME COMPLETED     

 ITERATION SUMMARY FOR THE INCREMENT:   0 TOTAL ITERATIONS, OF WHICH
   0 ARE SEVERE DISCONTINUITY ITERATIONS AND  0 ARE EQUILIBRIUM ITERATIONS.


                                INCREMENT    77 SUMMARY


 TIME INCREMENT COMPLETED  5.000E-04,  FRACTION OF STEP COMPLETED  3.850E-02
 STEP TIME COMPLETED     

 ITERATION SUMMARY FOR THE INCREMENT:   0 TOTAL ITERATIONS, OF WHICH
   0 ARE SEVERE DISCONTINUITY ITERATIONS AND  0 ARE EQUILIBRIUM ITERATIONS.


                                INCREMENT    78 SUMMARY


 TIME INCREMENT COMPLETED  5.000E-04,  FRACTION OF STEP COMPLETED  3.900E-02
 STEP TIME COMPLETED     

 ITERATION SUMMARY FOR THE INCREMENT:   0 TOTAL ITERATIONS, OF WHICH
   0 ARE SEVERE DISCONTINUITY ITERATIONS AND  0 ARE EQUILIBRIUM ITERATIONS.


                                INCREMENT    79 SUMMARY


 TIME INCREMENT COMPLETED  5.000E-04,  FRACTION OF STEP COMPLETED  3.950E-02
 STEP TIME COMPLETED     

 ITERATION SUMMARY FOR THE INCREMENT:   0 TOTAL ITERATIONS, OF WHICH
   0 ARE SEVERE DISCONTINUITY ITERATIONS AND  0 ARE EQUILIBRIUM ITERATIONS.


                                INCREMENT    80 SUMMARY


 TIME INCREMENT COMPLETED  5.000E-04,  FRACTION OF STEP COMPLETED  4.000E-02
 STEP TIME COMPLETED     

 ITERATION SUMMARY FOR THE INCREMENT:   0 TOTAL ITERATIONS, OF WHICH
   0 ARE SEVERE DISCONTINUITY ITERATIONS AND  0 ARE EQUILIBRIUM ITERATIONS.


                                INCREMENT    81 SUMMARY


 TIME INCREMENT COMPLETED  5.000E-04,  FRACTION OF STEP COMPLETED  4.050E-02
 STEP TIME COMPLETED     

 ITERATION SUMMARY FOR THE INCREMENT:   0 TOTAL ITERATIONS, OF WHICH
   0 ARE SEVERE DISCONTINUITY ITERATIONS AND  0 ARE EQUILIBRIUM ITERATIONS.


                                INCREMENT    82 SUMMARY


 TIME INCREMENT COMPLETED  5.000E-04,  FRACTION OF STEP COMPLETED  4.100E-02
 STEP TIME COMPLETED     

 ITERATION SUMMARY FOR THE INCREMENT:   0 TOTAL ITERATIONS, OF WHICH
   0 ARE SEVERE DISCONTINUITY ITERATIONS AND  0 ARE EQUILIBRIUM ITERATIONS.


                                INCREMENT    83 SUMMARY


 TIME INCREMENT COMPLETED  5.000E-04,  FRACTION OF STEP COMPLETED  4.150E-02
 STEP TIME COMPLETED     

 ITERATION SUMMARY FOR THE INCREMENT:   0 TOTAL ITERATIONS, OF WHICH
   0 ARE SEVERE DISCONTINUITY ITERATIONS AND  0 ARE EQUILIBRIUM ITERATIONS.


                                INCREMENT    84 SUMMARY


 TIME INCREMENT COMPLETED  5.000E-04,  FRACTION OF STEP COMPLETED  4.200E-02
 STEP TIME COMPLETED     

 ITERATION SUMMARY FOR THE INCREMENT:   0 TOTAL ITERATIONS, OF WHICH
   0 ARE SEVERE DISCONTINUITY ITERATIONS AND  0 ARE EQUILIBRIUM ITERATIONS.


                                INCREMENT    85 SUMMARY


 TIME INCREMENT COMPLETED  5.000E-04,  FRACTION OF STEP COMPLETED  4.250E-02
 STEP TIME COMPLETED     

 ITERATION SUMMARY FOR THE INCREMENT:   0 TOTAL ITERATIONS, OF WHICH
   0 ARE SEVERE DISCONTINUITY ITERATIONS AND  0 ARE EQUILIBRIUM ITERATIONS.


                                INCREMENT    86 SUMMARY


 TIME INCREMENT COMPLETED  5.000E-04,  FRACTION OF STEP COMPLETED  4.300E-02
 STEP TIME COMPLETED     

 ITERATION SUMMARY FOR THE INCREMENT:   0 TOTAL ITERATIONS, OF WHICH
   0 ARE SEVERE DISCONTINUITY ITERATIONS AND  0 ARE EQUILIBRIUM ITERATIONS.


                                INCREMENT    87 SUMMARY


 TIME INCREMENT COMPLETED  5.000E-04,  FRACTION OF STEP COMPLETED  4.350E-02
 STEP TIME COMPLETED     

 ITERATION SUMMARY FOR THE INCREMENT:   0 TOTAL ITERATIONS, OF WHICH
   0 ARE SEVERE DISCONTINUITY ITERATIONS AND  0 ARE EQUILIBRIUM ITERATIONS.


                                INCREMENT    88 SUMMARY


 TIME INCREMENT COMPLETED  5.000E-04,  FRACTION OF STEP COMPLETED  4.400E-02
 STEP TIME COMPLETED     

 ITERATION SUMMARY FOR THE INCREMENT:   0 TOTAL ITERATIONS, OF WHICH
   0 ARE SEVERE DISCONTINUITY ITERATIONS AND  0 ARE EQUILIBRIUM ITERATIONS.


                                INCREMENT    89 SUMMARY


 TIME INCREMENT COMPLETED  5.000E-04,  FRACTION OF STEP COMPLETED  4.450E-02
 STEP TIME COMPLETED     

 ITERATION SUMMARY FOR THE INCREMENT:   0 TOTAL ITERATIONS, OF WHICH
   0 ARE SEVERE DISCONTINUITY ITERATIONS AND  0 ARE EQUILIBRIUM ITERATIONS.


                                INCREMENT    90 SUMMARY


 TIME INCREMENT COMPLETED  5.000E-04,  FRACTION OF STEP COMPLETED  4.500E-02
 STEP TIME COMPLETED     

 ITERATION SUMMARY FOR THE INCREMENT:   0 TOTAL ITERATIONS, OF WHICH
   0 ARE SEVERE DISCONTINUITY ITERATIONS AND  0 ARE EQUILIBRIUM ITERATIONS.


                                INCREMENT    91 SUMMARY


 TIME INCREMENT COMPLETED  5.000E-04,  FRACTION OF STEP COMPLETED  4.550E-02
 STEP TIME COMPLETED     

 ITERATION SUMMARY FOR THE INCREMENT:   0 TOTAL ITERATIONS, OF WHICH
   0 ARE SEVERE DISCONTINUITY ITERATIONS AND  0 ARE EQUILIBRIUM ITERATIONS.


                                INCREMENT    92 SUMMARY


 TIME INCREMENT COMPLETED  5.000E-04,  FRACTION OF STEP COMPLETED  4.600E-02
 STEP TIME COMPLETED     

 ITERATION SUMMARY FOR THE INCREMENT:   0 TOTAL ITERATIONS, OF WHICH
   0 ARE SEVERE DISCONTINUITY ITERATIONS AND  0 ARE EQUILIBRIUM ITERATIONS.


                                INCREMENT    93 SUMMARY


 TIME INCREMENT COMPLETED  5.000E-04,  FRACTION OF STEP COMPLETED  4.650E-02
 STEP TIME COMPLETED     

 ITERATION SUMMARY FOR THE INCREMENT:   0 TOTAL ITERATIONS, OF WHICH
   0 ARE SEVERE DISCONTINUITY ITERATIONS AND  0 ARE EQUILIBRIUM ITERATIONS.


                                INCREMENT    94 SUMMARY


 TIME INCREMENT COMPLETED  5.000E-04,  FRACTION OF STEP COMPLETED  4.700E-02
 STEP TIME COMPLETED     

 ITERATION SUMMARY FOR THE INCREMENT:   0 TOTAL ITERATIONS, OF WHICH
   0 ARE SEVERE DISCONTINUITY ITERATIONS AND  0 ARE EQUILIBRIUM ITERATIONS.


                                INCREMENT    95 SUMMARY


 TIME INCREMENT COMPLETED  5.000E-04,  FRACTION OF STEP COMPLETED  4.750E-02
 STEP TIME COMPLETED     

 ITERATION SUMMARY FOR THE INCREMENT:   0 TOTAL ITERATIONS, OF WHICH
   0 ARE SEVERE DISCONTINUITY ITERATIONS AND  0 ARE EQUILIBRIUM ITERATIONS.


                                INCREMENT    96 SUMMARY


 TIME INCREMENT COMPLETED  5.000E-04,  FRACTION OF STEP COMPLETED  4.800E-02
 STEP TIME COMPLETED     

 ITERATION SUMMARY FOR THE INCREMENT:   0 TOTAL ITERATIONS, OF WHICH
   0 ARE SEVERE DISCONTINUITY ITERATIONS AND  0 ARE EQUILIBRIUM ITERATIONS.


                                INCREMENT    97 SUMMARY


 TIME INCREMENT COMPLETED  5.000E-04,  FRACTION OF STEP COMPLETED  4.850E-02
 STEP TIME COMPLETED     

 ITERATION SUMMARY FOR THE INCREMENT:   0 TOTAL ITERATIONS, OF WHICH
   0 ARE SEVERE DISCONTINUITY ITERATIONS AND  0 ARE EQUILIBRIUM ITERATIONS.


                                INCREMENT    98 SUMMARY


 TIME INCREMENT COMPLETED  5.000E-04,  FRACTION OF STEP COMPLETED  4.900E-02
 STEP TIME COMPLETED     

 ITERATION SUMMARY FOR THE INCREMENT:   0 TOTAL ITERATIONS, OF WHICH
   0 ARE SEVERE DISCONTINUITY ITERATIONS AND  0 ARE EQUILIBRIUM ITERATIONS.


                                INCREMENT    99 SUMMARY


 TIME INCREMENT COMPLETED  5.000E-04,  FRACTION OF STEP COMPLETED  4.950E-02
 STEP TIME COMPLETED     

 ITERATION SUMMARY FOR THE INCREMENT:   0 TOTAL ITERATIONS, OF WHICH
   0 ARE SEVERE DISCONTINUITY ITERATIONS AND  0 ARE EQUILIBRIUM ITERATIONS.


                                INCREMENT   100 SUMMARY


 TIME INCREMENT COMPLETED  5.000E-04,  FRACTION OF STEP COMPLETED  5.000E-02
 STEP TIME COMPLETED     

 ITERATION SUMMARY FOR THE INCREMENT:   0 TOTAL ITERATIONS, OF WHICH
   0 ARE SEVERE DISCONTINUITY ITERATIONS AND  0 ARE EQUILIBRIUM ITERATIONS.
1

   Abaqus 6.14-1                                  Date 10-Jan-2016   Time 19:46:57
   For use by Supplied By SSQ under license from Dassault Systemes or its subsidiary.

                                                                                 
                                                                                 
 STEP    3     INCREMENT     1     STEP TIME    0.00    


                        S T E P       3     S T E A D Y   S T A T E   A N A L Y S I S                


                                                                                          
          FULL STRUCTURAL-ACOUSTIC COUPLING IS USED IN THIS
          FORCED RESPONSE ANALYSIS
          FREQUENCY RANGE DEFINITIONS (CYCLES/TIME)
                LOW         HIGH        POINTS        BIAS     SCALE FACTOR  TYPE OF SCALING


              1.505E-08     200.          150         3.00         1.00       Logarithmic     
          INTERVAL WILL BE DIVIDED FIRST USING EIGENFREQUENCIES.


     THIS IS A LINEAR PERTURBATION STEP.
     ALL LOADS ARE DEFINED AS CHANGE IN LOAD TO THE REFERENCE STATE

     EXTRAPOLATION WILL NOT BE USED

     CHARACTERISTIC ELEMENT LENGTH     7.895E-02

     DETAILS REGARDING ACTUAL SOLUTION WAVEFRONT REQUESTED

     DETAILED OUTPUT OF DIAGNOSTICS TO DATABASE REQUESTED

     PRINT OF INCREMENT NUMBER, TIME, ETC., TO THE MESSAGE FILE EVERY     1  INCREMENTS


                              INCREMENT NUMBER     1
                              FREQUENCY =  1.50486611E-08


 ITERATION SUMMARY FOR THE INCREMENT:   0 TOTAL ITERATIONS, OF WHICH
   0 ARE SEVERE DISCONTINUITY ITERATIONS AND  0 ARE EQUILIBRIUM ITERATIONS.


                              INCREMENT NUMBER     2
                              FREQUENCY =  3.05694771E-08


 ITERATION SUMMARY FOR THE INCREMENT:   0 TOTAL ITERATIONS, OF WHICH
   0 ARE SEVERE DISCONTINUITY ITERATIONS AND  0 ARE EQUILIBRIUM ITERATIONS.


                              INCREMENT NUMBER     3
                              FREQUENCY =  4.82060235E-08


 ITERATION SUMMARY FOR THE INCREMENT:   0 TOTAL ITERATIONS, OF WHICH
   0 ARE SEVERE DISCONTINUITY ITERATIONS AND  0 ARE EQUILIBRIUM ITERATIONS.


                              INCREMENT NUMBER     4
                              FREQUENCY =  6.56398014E-08


 ITERATION SUMMARY FOR THE INCREMENT:   0 TOTAL ITERATIONS, OF WHICH
   0 ARE SEVERE DISCONTINUITY ITERATIONS AND  0 ARE EQUILIBRIUM ITERATIONS.


                              INCREMENT NUMBER     5
                              FREQUENCY =  8.53823057E-08


 ITERATION SUMMARY FOR THE INCREMENT:   0 TOTAL ITERATIONS, OF WHICH
   0 ARE SEVERE DISCONTINUITY ITERATIONS AND  0 ARE EQUILIBRIUM ITERATIONS.


                              INCREMENT NUMBER     6
                              FREQUENCY =  1.05124018E-07


 ITERATION SUMMARY FOR THE INCREMENT:   0 TOTAL ITERATIONS, OF WHICH
   0 ARE SEVERE DISCONTINUITY ITERATIONS AND  0 ARE EQUILIBRIUM ITERATIONS.


                              INCREMENT NUMBER     7
                              FREQUENCY =  1.21459714E-07


 ITERATION SUMMARY FOR THE INCREMENT:   0 TOTAL ITERATIONS, OF WHICH
   0 ARE SEVERE DISCONTINUITY ITERATIONS AND  0 ARE EQUILIBRIUM ITERATIONS.


                              INCREMENT NUMBER     8
                              FREQUENCY =  1.41050439E-07


 ITERATION SUMMARY FOR THE INCREMENT:   0 TOTAL ITERATIONS, OF WHICH
   0 ARE SEVERE DISCONTINUITY ITERATIONS AND  0 ARE EQUILIBRIUM ITERATIONS.


                              INCREMENT NUMBER     9
                              FREQUENCY =  1.64715494E-07


 ITERATION SUMMARY FOR THE INCREMENT:   0 TOTAL ITERATIONS, OF WHICH
   0 ARE SEVERE DISCONTINUITY ITERATIONS AND  0 ARE EQUILIBRIUM ITERATIONS.


                              INCREMENT NUMBER    10
                              FREQUENCY =  1.93531087E-07


 ITERATION SUMMARY FOR THE INCREMENT:   0 TOTAL ITERATIONS, OF WHICH
   0 ARE SEVERE DISCONTINUITY ITERATIONS AND  0 ARE EQUILIBRIUM ITERATIONS.


                              INCREMENT NUMBER    11
                              FREQUENCY =  2.10300440E-07


 ITERATION SUMMARY FOR THE INCREMENT:   0 TOTAL ITERATIONS, OF WHICH
   0 ARE SEVERE DISCONTINUITY ITERATIONS AND  0 ARE EQUILIBRIUM ITERATIONS.


                              INCREMENT NUMBER    12
                              FREQUENCY =  2.28929489E-07


 ITERATION SUMMARY FOR THE INCREMENT:   0 TOTAL ITERATIONS, OF WHICH
   0 ARE SEVERE DISCONTINUITY ITERATIONS AND  0 ARE EQUILIBRIUM ITERATIONS.


                              INCREMENT NUMBER    13
                              FREQUENCY =  2.49676738E-07


 ITERATION SUMMARY FOR THE INCREMENT:   0 TOTAL ITERATIONS, OF WHICH
   0 ARE SEVERE DISCONTINUITY ITERATIONS AND  0 ARE EQUILIBRIUM ITERATIONS.


                              INCREMENT NUMBER    14
                              FREQUENCY =  2.72844863E-07


 ITERATION SUMMARY FOR THE INCREMENT:   0 TOTAL ITERATIONS, OF WHICH
   0 ARE SEVERE DISCONTINUITY ITERATIONS AND  0 ARE EQUILIBRIUM ITERATIONS.


                              INCREMENT NUMBER    15
                              FREQUENCY =  2.98789842E-07


 ITERATION SUMMARY FOR THE INCREMENT:   0 TOTAL ITERATIONS, OF WHICH
   0 ARE SEVERE DISCONTINUITY ITERATIONS AND  0 ARE EQUILIBRIUM ITERATIONS.


                              INCREMENT NUMBER    16
                              FREQUENCY =  3.27932315E-07


 ITERATION SUMMARY FOR THE INCREMENT:   0 TOTAL ITERATIONS, OF WHICH
   0 ARE SEVERE DISCONTINUITY ITERATIONS AND  0 ARE EQUILIBRIUM ITERATIONS.


                              INCREMENT NUMBER    17
                              FREQUENCY =  3.60771850E-07


 ITERATION SUMMARY FOR THE INCREMENT:   0 TOTAL ITERATIONS, OF WHICH
   0 ARE SEVERE DISCONTINUITY ITERATIONS AND  0 ARE EQUILIBRIUM ITERATIONS.


                              INCREMENT NUMBER    18
                              FREQUENCY =  3.97904968E-07


 ITERATION SUMMARY FOR THE INCREMENT:   0 TOTAL ITERATIONS, OF WHICH
   0 ARE SEVERE DISCONTINUITY ITERATIONS AND  0 ARE EQUILIBRIUM ITERATIONS.


                              INCREMENT NUMBER    19
                              FREQUENCY =  4.40048099E-07


 ITERATION SUMMARY FOR THE INCREMENT:   0 TOTAL ITERATIONS, OF WHICH
   0 ARE SEVERE DISCONTINUITY ITERATIONS AND  0 ARE EQUILIBRIUM ITERATIONS.


                              INCREMENT NUMBER    20
                              FREQUENCY =  4.88067082E-07


 ITERATION SUMMARY FOR THE INCREMENT:   0 TOTAL ITERATIONS, OF WHICH
   0 ARE SEVERE DISCONTINUITY ITERATIONS AND  0 ARE EQUILIBRIUM ITERATIONS.


                              INCREMENT NUMBER    21
                              FREQUENCY =  5.43015406E-07


 ITERATION SUMMARY FOR THE INCREMENT:   0 TOTAL ITERATIONS, OF WHICH
   0 ARE SEVERE DISCONTINUITY ITERATIONS AND  0 ARE EQUILIBRIUM ITERATIONS.


                              INCREMENT NUMBER    22
                              FREQUENCY =  6.06184288E-07


 ITERATION SUMMARY FOR THE INCREMENT:   0 TOTAL ITERATIONS, OF WHICH
   0 ARE SEVERE DISCONTINUITY ITERATIONS AND  0 ARE EQUILIBRIUM ITERATIONS.


                              INCREMENT NUMBER    23
                              FREQUENCY =  6.79168955E-07


 ITERATION SUMMARY FOR THE INCREMENT:   0 TOTAL ITERATIONS, OF WHICH
   0 ARE SEVERE DISCONTINUITY ITERATIONS AND  0 ARE EQUILIBRIUM ITERATIONS.


                              INCREMENT NUMBER    24
                              FREQUENCY =  7.63957423E-07


 ITERATION SUMMARY FOR THE INCREMENT:   0 TOTAL ITERATIONS, OF WHICH
   0 ARE SEVERE DISCONTINUITY ITERATIONS AND  0 ARE EQUILIBRIUM ITERATIONS.


                              INCREMENT NUMBER    25
                              FREQUENCY =  8.63050941E-07


 ITERATION SUMMARY FOR THE INCREMENT:   0 TOTAL ITERATIONS, OF WHICH
   0 ARE SEVERE DISCONTINUITY ITERATIONS AND  0 ARE EQUILIBRIUM ITERATIONS.


                              INCREMENT NUMBER    26
                              FREQUENCY =  9.79629730E-07


 ITERATION SUMMARY FOR THE INCREMENT:   0 TOTAL ITERATIONS, OF WHICH
   0 ARE SEVERE DISCONTINUITY ITERATIONS AND  0 ARE EQUILIBRIUM ITERATIONS.


                              INCREMENT NUMBER    27
                              FREQUENCY =  1.11778469E-06


 ITERATION SUMMARY FOR THE INCREMENT:   0 TOTAL ITERATIONS, OF WHICH
   0 ARE SEVERE DISCONTINUITY ITERATIONS AND  0 ARE EQUILIBRIUM ITERATIONS.


                              INCREMENT NUMBER    28
                              FREQUENCY =  1.28284698E-06


 ITERATION SUMMARY FOR THE INCREMENT:   0 TOTAL ITERATIONS, OF WHICH
   0 ARE SEVERE DISCONTINUITY ITERATIONS AND  0 ARE EQUILIBRIUM ITERATIONS.


                              INCREMENT NUMBER    29
                              FREQUENCY =  1.48186624E-06


 ITERATION SUMMARY FOR THE INCREMENT:   0 TOTAL ITERATIONS, OF WHICH
   0 ARE SEVERE DISCONTINUITY ITERATIONS AND  0 ARE EQUILIBRIUM ITERATIONS.


                              INCREMENT NUMBER    30
                              FREQUENCY =  1.72431979E-06


 ITERATION SUMMARY FOR THE INCREMENT:   0 TOTAL ITERATIONS, OF WHICH
   0 ARE SEVERE DISCONTINUITY ITERATIONS AND  0 ARE EQUILIBRIUM ITERATIONS.


                              INCREMENT NUMBER    31
                              FREQUENCY =  2.02319148E-06


 ITERATION SUMMARY FOR THE INCREMENT:   0 TOTAL ITERATIONS, OF WHICH
   0 ARE SEVERE DISCONTINUITY ITERATIONS AND  0 ARE EQUILIBRIUM ITERATIONS.


                              INCREMENT NUMBER    32
                              FREQUENCY =  2.39666090E-06


 ITERATION SUMMARY FOR THE INCREMENT:   0 TOTAL ITERATIONS, OF WHICH
   0 ARE SEVERE DISCONTINUITY ITERATIONS AND  0 ARE EQUILIBRIUM ITERATIONS.


                              INCREMENT NUMBER    33
                              FREQUENCY =  2.87083897E-06


 ITERATION SUMMARY FOR THE INCREMENT:   0 TOTAL ITERATIONS, OF WHICH
   0 ARE SEVERE DISCONTINUITY ITERATIONS AND  0 ARE EQUILIBRIUM ITERATIONS.


                              INCREMENT NUMBER    34
                              FREQUENCY =  3.48437787E-06


 ITERATION SUMMARY FOR THE INCREMENT:   0 TOTAL ITERATIONS, OF WHICH
   0 ARE SEVERE DISCONTINUITY ITERATIONS AND  0 ARE EQUILIBRIUM ITERATIONS.


                              INCREMENT NUMBER    35
                              FREQUENCY =  4.29661803E-06


 ITERATION SUMMARY FOR THE INCREMENT:   0 TOTAL ITERATIONS, OF WHICH
   0 ARE SEVERE DISCONTINUITY ITERATIONS AND  0 ARE EQUILIBRIUM ITERATIONS.


                              INCREMENT NUMBER    36
                              FREQUENCY =  5.40285007E-06


 ITERATION SUMMARY FOR THE INCREMENT:   0 TOTAL ITERATIONS, OF WHICH
   0 ARE SEVERE DISCONTINUITY ITERATIONS AND  0 ARE EQUILIBRIUM ITERATIONS.


                              INCREMENT NUMBER    37
                              FREQUENCY =  6.96507331E-06


 ITERATION SUMMARY FOR THE INCREMENT:   0 TOTAL ITERATIONS, OF WHICH
   0 ARE SEVERE DISCONTINUITY ITERATIONS AND  0 ARE EQUILIBRIUM ITERATIONS.


                              INCREMENT NUMBER    38
                              FREQUENCY =  9.28015721E-06


 ITERATION SUMMARY FOR THE INCREMENT:   0 TOTAL ITERATIONS, OF WHICH
   0 ARE SEVERE DISCONTINUITY ITERATIONS AND  0 ARE EQUILIBRIUM ITERATIONS.


                              INCREMENT NUMBER    39
                              FREQUENCY =  1.29517214E-05


 ITERATION SUMMARY FOR THE INCREMENT:   0 TOTAL ITERATIONS, OF WHICH
   0 ARE SEVERE DISCONTINUITY ITERATIONS AND  0 ARE EQUILIBRIUM ITERATIONS.


                              INCREMENT NUMBER    40
                              FREQUENCY =  1.94137107E-05


 ITERATION SUMMARY FOR THE INCREMENT:   0 TOTAL ITERATIONS, OF WHICH
   0 ARE SEVERE DISCONTINUITY ITERATIONS AND  0 ARE EQUILIBRIUM ITERATIONS.


                              INCREMENT NUMBER    41
                              FREQUENCY =  3.31122265E-05


 ITERATION SUMMARY FOR THE INCREMENT:   0 TOTAL ITERATIONS, OF WHICH
   0 ARE SEVERE DISCONTINUITY ITERATIONS AND  0 ARE EQUILIBRIUM ITERATIONS.


                              INCREMENT NUMBER    42
                              FREQUENCY =  7.99878582E-05


 ITERATION SUMMARY FOR THE INCREMENT:   0 TOTAL ITERATIONS, OF WHICH
   0 ARE SEVERE DISCONTINUITY ITERATIONS AND  0 ARE EQUILIBRIUM ITERATIONS.


                              INCREMENT NUMBER    43
                              FREQUENCY =  4.31756747E-03


 ITERATION SUMMARY FOR THE INCREMENT:   0 TOTAL ITERATIONS, OF WHICH
   0 ARE SEVERE DISCONTINUITY ITERATIONS AND  0 ARE EQUILIBRIUM ITERATIONS.


                              INCREMENT NUMBER    44
                              FREQUENCY =  1.04297721E-02


 ITERATION SUMMARY FOR THE INCREMENT:   0 TOTAL ITERATIONS, OF WHICH
   0 ARE SEVERE DISCONTINUITY ITERATIONS AND  0 ARE EQUILIBRIUM ITERATIONS.


                              INCREMENT NUMBER    45
                              FREQUENCY =  1.77891275E-02


 ITERATION SUMMARY FOR THE INCREMENT:   0 TOTAL ITERATIONS, OF WHICH
   0 ARE SEVERE DISCONTINUITY ITERATIONS AND  0 ARE EQUILIBRIUM ITERATIONS.


                              INCREMENT NUMBER    46
                              FREQUENCY =  2.66646389E-02


 ITERATION SUMMARY FOR THE INCREMENT:   0 TOTAL ITERATIONS, OF WHICH
   0 ARE SEVERE DISCONTINUITY ITERATIONS AND  0 ARE EQUILIBRIUM ITERATIONS.


                              INCREMENT NUMBER    47
                              FREQUENCY =  3.72141298E-02


 ITERATION SUMMARY FOR THE INCREMENT:   0 TOTAL ITERATIONS, OF WHICH
   0 ARE SEVERE DISCONTINUITY ITERATIONS AND  0 ARE EQUILIBRIUM ITERATIONS.


                              INCREMENT NUMBER    48
                              FREQUENCY =  4.95835377E-02


 ITERATION SUMMARY FOR THE INCREMENT:   0 TOTAL ITERATIONS, OF WHICH
   0 ARE SEVERE DISCONTINUITY ITERATIONS AND  0 ARE EQUILIBRIUM ITERATIONS.


                              INCREMENT NUMBER    49
                              FREQUENCY =  6.39205179E-02


 ITERATION SUMMARY FOR THE INCREMENT:   0 TOTAL ITERATIONS, OF WHICH
   0 ARE SEVERE DISCONTINUITY ITERATIONS AND  0 ARE EQUILIBRIUM ITERATIONS.


                              INCREMENT NUMBER    50
                              FREQUENCY =  8.03778629E-02


 ITERATION SUMMARY FOR THE INCREMENT:   0 TOTAL ITERATIONS, OF WHICH
   0 ARE SEVERE DISCONTINUITY ITERATIONS AND  0 ARE EQUILIBRIUM ITERATIONS.


                              INCREMENT NUMBER    51
                              FREQUENCY =  9.91146735E-02


 ITERATION SUMMARY FOR THE INCREMENT:   0 TOTAL ITERATIONS, OF WHICH
   0 ARE SEVERE DISCONTINUITY ITERATIONS AND  0 ARE EQUILIBRIUM ITERATIONS.


                              INCREMENT NUMBER    52
                              FREQUENCY =  0.12029688    


 ITERATION SUMMARY FOR THE INCREMENT:   0 TOTAL ITERATIONS, OF WHICH
   0 ARE SEVERE DISCONTINUITY ITERATIONS AND  0 ARE EQUILIBRIUM ITERATIONS.


                              INCREMENT NUMBER    53
                              FREQUENCY =  0.14409755    


 ITERATION SUMMARY FOR THE INCREMENT:   0 TOTAL ITERATIONS, OF WHICH
   0 ARE SEVERE DISCONTINUITY ITERATIONS AND  0 ARE EQUILIBRIUM ITERATIONS.


                              INCREMENT NUMBER    54
                              FREQUENCY =  0.17069713    


 ITERATION SUMMARY FOR THE INCREMENT:   0 TOTAL ITERATIONS, OF WHICH
   0 ARE SEVERE DISCONTINUITY ITERATIONS AND  0 ARE EQUILIBRIUM ITERATIONS.


                              INCREMENT NUMBER    55
                              FREQUENCY =  0.20028360    


 ITERATION SUMMARY FOR THE INCREMENT:   0 TOTAL ITERATIONS, OF WHICH
   0 ARE SEVERE DISCONTINUITY ITERATIONS AND  0 ARE EQUILIBRIUM ITERATIONS.


                              INCREMENT NUMBER    56
                              FREQUENCY =  0.23305273    


 ITERATION SUMMARY FOR THE INCREMENT:   0 TOTAL ITERATIONS, OF WHICH
   0 ARE SEVERE DISCONTINUITY ITERATIONS AND  0 ARE EQUILIBRIUM ITERATIONS.


                              INCREMENT NUMBER    57
                              FREQUENCY =  0.26920824    


 ITERATION SUMMARY FOR THE INCREMENT:   0 TOTAL ITERATIONS, OF WHICH
   0 ARE SEVERE DISCONTINUITY ITERATIONS AND  0 ARE EQUILIBRIUM ITERATIONS.


                              INCREMENT NUMBER    58
                              FREQUENCY =  0.30896198    


 ITERATION SUMMARY FOR THE INCREMENT:   0 TOTAL ITERATIONS, OF WHICH
   0 ARE SEVERE DISCONTINUITY ITERATIONS AND  0 ARE EQUILIBRIUM ITERATIONS.


                              INCREMENT NUMBER    59
                              FREQUENCY =  0.35253419    


 ITERATION SUMMARY FOR THE INCREMENT:   0 TOTAL ITERATIONS, OF WHICH
   0 ARE SEVERE DISCONTINUITY ITERATIONS AND  0 ARE EQUILIBRIUM ITERATIONS.


                              INCREMENT NUMBER    60
                              FREQUENCY =  0.40015364    


 ITERATION SUMMARY FOR THE INCREMENT:   0 TOTAL ITERATIONS, OF WHICH
   0 ARE SEVERE DISCONTINUITY ITERATIONS AND  0 ARE EQUILIBRIUM ITERATIONS.


                              INCREMENT NUMBER    61
                              FREQUENCY =  0.45205788    


 ITERATION SUMMARY FOR THE INCREMENT:   0 TOTAL ITERATIONS, OF WHICH
   0 ARE SEVERE DISCONTINUITY ITERATIONS AND  0 ARE EQUILIBRIUM ITERATIONS.


                              INCREMENT NUMBER    62
                              FREQUENCY =  0.50849346    


 ITERATION SUMMARY FOR THE INCREMENT:   0 TOTAL ITERATIONS, OF WHICH
   0 ARE SEVERE DISCONTINUITY ITERATIONS AND  0 ARE EQUILIBRIUM ITERATIONS.


                              INCREMENT NUMBER    63
                              FREQUENCY =  0.56971614    


 ITERATION SUMMARY FOR THE INCREMENT:   0 TOTAL ITERATIONS, OF WHICH
   0 ARE SEVERE DISCONTINUITY ITERATIONS AND  0 ARE EQUILIBRIUM ITERATIONS.


                              INCREMENT NUMBER    64
                              FREQUENCY =  0.63599112    


 ITERATION SUMMARY FOR THE INCREMENT:   0 TOTAL ITERATIONS, OF WHICH
   0 ARE SEVERE DISCONTINUITY ITERATIONS AND  0 ARE EQUILIBRIUM ITERATIONS.


                              INCREMENT NUMBER    65
                              FREQUENCY =  0.70759325    


 ITERATION SUMMARY FOR THE INCREMENT:   0 TOTAL ITERATIONS, OF WHICH
   0 ARE SEVERE DISCONTINUITY ITERATIONS AND  0 ARE EQUILIBRIUM ITERATIONS.


                              INCREMENT NUMBER    66
                              FREQUENCY =  0.78480733    


 ITERATION SUMMARY FOR THE INCREMENT:   0 TOTAL ITERATIONS, OF WHICH
   0 ARE SEVERE DISCONTINUITY ITERATIONS AND  0 ARE EQUILIBRIUM ITERATIONS.


                              INCREMENT NUMBER    67
                              FREQUENCY =  0.86792828    


 ITERATION SUMMARY FOR THE INCREMENT:   0 TOTAL ITERATIONS, OF WHICH
   0 ARE SEVERE DISCONTINUITY ITERATIONS AND  0 ARE EQUILIBRIUM ITERATIONS.


                              INCREMENT NUMBER    68
                              FREQUENCY =  0.95726142    


 ITERATION SUMMARY FOR THE INCREMENT:   0 TOTAL ITERATIONS, OF WHICH
   0 ARE SEVERE DISCONTINUITY ITERATIONS AND  0 ARE EQUILIBRIUM ITERATIONS.


                              INCREMENT NUMBER    69
                              FREQUENCY =   1.0531227    


 ITERATION SUMMARY FOR THE INCREMENT:   0 TOTAL ITERATIONS, OF WHICH
   0 ARE SEVERE DISCONTINUITY ITERATIONS AND  0 ARE EQUILIBRIUM ITERATIONS.


                              INCREMENT NUMBER    70
                              FREQUENCY =   1.1558391    


 ITERATION SUMMARY FOR THE INCREMENT:   0 TOTAL ITERATIONS, OF WHICH
   0 ARE SEVERE DISCONTINUITY ITERATIONS AND  0 ARE EQUILIBRIUM ITERATIONS.


                              INCREMENT NUMBER    71
                              FREQUENCY =   1.2657485    


 ITERATION SUMMARY FOR THE INCREMENT:   0 TOTAL ITERATIONS, OF WHICH
   0 ARE SEVERE DISCONTINUITY ITERATIONS AND  0 ARE EQUILIBRIUM ITERATIONS.


                              INCREMENT NUMBER    72
                              FREQUENCY =   1.3832004    


 ITERATION SUMMARY FOR THE INCREMENT:   0 TOTAL ITERATIONS, OF WHICH
   0 ARE SEVERE DISCONTINUITY ITERATIONS AND  0 ARE EQUILIBRIUM ITERATIONS.


                              INCREMENT NUMBER    73
                              FREQUENCY =   1.5085561    


 ITERATION SUMMARY FOR THE INCREMENT:   0 TOTAL ITERATIONS, OF WHICH
   0 ARE SEVERE DISCONTINUITY ITERATIONS AND  0 ARE EQUILIBRIUM ITERATIONS.


                              INCREMENT NUMBER    74
                              FREQUENCY =   1.6421886    


 ITERATION SUMMARY FOR THE INCREMENT:   0 TOTAL ITERATIONS, OF WHICH
   0 ARE SEVERE DISCONTINUITY ITERATIONS AND  0 ARE EQUILIBRIUM ITERATIONS.


                              INCREMENT NUMBER    75
                              FREQUENCY =   1.7844832    


 ITERATION SUMMARY FOR THE INCREMENT:   0 TOTAL ITERATIONS, OF WHICH
   0 ARE SEVERE DISCONTINUITY ITERATIONS AND  0 ARE EQUILIBRIUM ITERATIONS.


                              INCREMENT NUMBER    76
                              FREQUENCY =   1.9358380    


 ITERATION SUMMARY FOR THE INCREMENT:   0 TOTAL ITERATIONS, OF WHICH
   0 ARE SEVERE DISCONTINUITY ITERATIONS AND  0 ARE EQUILIBRIUM ITERATIONS.


                              INCREMENT NUMBER    77
                              FREQUENCY =   2.0966636    


 ITERATION SUMMARY FOR THE INCREMENT:   0 TOTAL ITERATIONS, OF WHICH
   0 ARE SEVERE DISCONTINUITY ITERATIONS AND  0 ARE EQUILIBRIUM ITERATIONS.


                              INCREMENT NUMBER    78
                              FREQUENCY =   2.2673838    


 ITERATION SUMMARY FOR THE INCREMENT:   0 TOTAL ITERATIONS, OF WHICH
   0 ARE SEVERE DISCONTINUITY ITERATIONS AND  0 ARE EQUILIBRIUM ITERATIONS.


                              INCREMENT NUMBER    79
                              FREQUENCY =   2.4484360    


 ITERATION SUMMARY FOR THE INCREMENT:   0 TOTAL ITERATIONS, OF WHICH
   0 ARE SEVERE DISCONTINUITY ITERATIONS AND  0 ARE EQUILIBRIUM ITERATIONS.


                              INCREMENT NUMBER    80
                              FREQUENCY =   2.6402711    


 ITERATION SUMMARY FOR THE INCREMENT:   0 TOTAL ITERATIONS, OF WHICH
   0 ARE SEVERE DISCONTINUITY ITERATIONS AND  0 ARE EQUILIBRIUM ITERATIONS.


                              INCREMENT NUMBER    81
                              FREQUENCY =   2.8433541    


 ITERATION SUMMARY FOR THE INCREMENT:   0 TOTAL ITERATIONS, OF WHICH
   0 ARE SEVERE DISCONTINUITY ITERATIONS AND  0 ARE EQUILIBRIUM ITERATIONS.


                              INCREMENT NUMBER    82
                              FREQUENCY =   3.0581643    


 ITERATION SUMMARY FOR THE INCREMENT:   0 TOTAL ITERATIONS, OF WHICH
   0 ARE SEVERE DISCONTINUITY ITERATIONS AND  0 ARE EQUILIBRIUM ITERATIONS.


                              INCREMENT NUMBER    83
                              FREQUENCY =   3.2851957    


 ITERATION SUMMARY FOR THE INCREMENT:   0 TOTAL ITERATIONS, OF WHICH
   0 ARE SEVERE DISCONTINUITY ITERATIONS AND  0 ARE EQUILIBRIUM ITERATIONS.


                              INCREMENT NUMBER    84
                              FREQUENCY =   3.5249573    


 ITERATION SUMMARY FOR THE INCREMENT:   0 TOTAL ITERATIONS, OF WHICH
   0 ARE SEVERE DISCONTINUITY ITERATIONS AND  0 ARE EQUILIBRIUM ITERATIONS.


                              INCREMENT NUMBER    85
                              FREQUENCY =   3.7779734    


 ITERATION SUMMARY FOR THE INCREMENT:   0 TOTAL ITERATIONS, OF WHICH
   0 ARE SEVERE DISCONTINUITY ITERATIONS AND  0 ARE EQUILIBRIUM ITERATIONS.


                              INCREMENT NUMBER    86
                              FREQUENCY =   4.0447839    


 ITERATION SUMMARY FOR THE INCREMENT:   0 TOTAL ITERATIONS, OF WHICH
   0 ARE SEVERE DISCONTINUITY ITERATIONS AND  0 ARE EQUILIBRIUM ITERATIONS.


                              INCREMENT NUMBER    87
                              FREQUENCY =   4.3259447    


 ITERATION SUMMARY FOR THE INCREMENT:   0 TOTAL ITERATIONS, OF WHICH
   0 ARE SEVERE DISCONTINUITY ITERATIONS AND  0 ARE EQUILIBRIUM ITERATIONS.


                              INCREMENT NUMBER    88
                              FREQUENCY =   4.6220279    


 ITERATION SUMMARY FOR THE INCREMENT:   0 TOTAL ITERATIONS, OF WHICH
   0 ARE SEVERE DISCONTINUITY ITERATIONS AND  0 ARE EQUILIBRIUM ITERATIONS.


                              INCREMENT NUMBER    89
                              FREQUENCY =   4.9336227    


 ITERATION SUMMARY FOR THE INCREMENT:   0 TOTAL ITERATIONS, OF WHICH
   0 ARE SEVERE DISCONTINUITY ITERATIONS AND  0 ARE EQUILIBRIUM ITERATIONS.


                              INCREMENT NUMBER    90
                              FREQUENCY =   5.2613349    


 ITERATION SUMMARY FOR THE INCREMENT:   0 TOTAL ITERATIONS, OF WHICH
   0 ARE SEVERE DISCONTINUITY ITERATIONS AND  0 ARE EQUILIBRIUM ITERATIONS.


                              INCREMENT NUMBER    91
                              FREQUENCY =   5.6057878    


 ITERATION SUMMARY FOR THE INCREMENT:   0 TOTAL ITERATIONS, OF WHICH
   0 ARE SEVERE DISCONTINUITY ITERATIONS AND  0 ARE EQUILIBRIUM ITERATIONS.


                              INCREMENT NUMBER    92
                              FREQUENCY =   5.9676226    


 ITERATION SUMMARY FOR THE INCREMENT:   0 TOTAL ITERATIONS, OF WHICH
   0 ARE SEVERE DISCONTINUITY ITERATIONS AND  0 ARE EQUILIBRIUM ITERATIONS.


                              INCREMENT NUMBER    93
                              FREQUENCY =   6.3474986    


 ITERATION SUMMARY FOR THE INCREMENT:   0 TOTAL ITERATIONS, OF WHICH
   0 ARE SEVERE DISCONTINUITY ITERATIONS AND  0 ARE EQUILIBRIUM ITERATIONS.


                              INCREMENT NUMBER    94
                              FREQUENCY =   6.7460936    


 ITERATION SUMMARY FOR THE INCREMENT:   0 TOTAL ITERATIONS, OF WHICH
   0 ARE SEVERE DISCONTINUITY ITERATIONS AND  0 ARE EQUILIBRIUM ITERATIONS.


                              INCREMENT NUMBER    95
                              FREQUENCY =   7.1641042    


 ITERATION SUMMARY FOR THE INCREMENT:   0 TOTAL ITERATIONS, OF WHICH
   0 ARE SEVERE DISCONTINUITY ITERATIONS AND  0 ARE EQUILIBRIUM ITERATIONS.


                              INCREMENT NUMBER    96
                              FREQUENCY =   7.6022465    


 ITERATION SUMMARY FOR THE INCREMENT:   0 TOTAL ITERATIONS, OF WHICH
   0 ARE SEVERE DISCONTINUITY ITERATIONS AND  0 ARE EQUILIBRIUM ITERATIONS.


                              INCREMENT NUMBER    97
                              FREQUENCY =   8.0612561    


 ITERATION SUMMARY FOR THE INCREMENT:   0 TOTAL ITERATIONS, OF WHICH
   0 ARE SEVERE DISCONTINUITY ITERATIONS AND  0 ARE EQUILIBRIUM ITERATIONS.


                              INCREMENT NUMBER    98
                              FREQUENCY =   8.5418890    


 ITERATION SUMMARY FOR THE INCREMENT:   0 TOTAL ITERATIONS, OF WHICH
   0 ARE SEVERE DISCONTINUITY ITERATIONS AND  0 ARE EQUILIBRIUM ITERATIONS.


                              INCREMENT NUMBER    99
                              FREQUENCY =   9.0449213    


 ITERATION SUMMARY FOR THE INCREMENT:   0 TOTAL ITERATIONS, OF WHICH
   0 ARE SEVERE DISCONTINUITY ITERATIONS AND  0 ARE EQUILIBRIUM ITERATIONS.


                              INCREMENT NUMBER   100
                              FREQUENCY =   9.5711504    


 ITERATION SUMMARY FOR THE INCREMENT:   0 TOTAL ITERATIONS, OF WHICH
   0 ARE SEVERE DISCONTINUITY ITERATIONS AND  0 ARE EQUILIBRIUM ITERATIONS.


                              INCREMENT NUMBER   101
                              FREQUENCY =   10.121395    


 ITERATION SUMMARY FOR THE INCREMENT:   0 TOTAL ITERATIONS, OF WHICH
   0 ARE SEVERE DISCONTINUITY ITERATIONS AND  0 ARE EQUILIBRIUM ITERATIONS.


                              INCREMENT NUMBER   102
                              FREQUENCY =   10.696495    


 ITERATION SUMMARY FOR THE INCREMENT:   0 TOTAL ITERATIONS, OF WHICH
   0 ARE SEVERE DISCONTINUITY ITERATIONS AND  0 ARE EQUILIBRIUM ITERATIONS.


                              INCREMENT NUMBER   103
                              FREQUENCY =   11.297314    


 ITERATION SUMMARY FOR THE INCREMENT:   0 TOTAL ITERATIONS, OF WHICH
   0 ARE SEVERE DISCONTINUITY ITERATIONS AND  0 ARE EQUILIBRIUM ITERATIONS.


                              INCREMENT NUMBER   104
                              FREQUENCY =   11.924736    


 ITERATION SUMMARY FOR THE INCREMENT:   0 TOTAL ITERATIONS, OF WHICH
   0 ARE SEVERE DISCONTINUITY ITERATIONS AND  0 ARE EQUILIBRIUM ITERATIONS.


                              INCREMENT NUMBER   105
                              FREQUENCY =   12.579670    


 ITERATION SUMMARY FOR THE INCREMENT:   0 TOTAL ITERATIONS, OF WHICH
   0 ARE SEVERE DISCONTINUITY ITERATIONS AND  0 ARE EQUILIBRIUM ITERATIONS.


                              INCREMENT NUMBER   106
                              FREQUENCY =   13.263049    


 ITERATION SUMMARY FOR THE INCREMENT:   0 TOTAL ITERATIONS, OF WHICH
   0 ARE SEVERE DISCONTINUITY ITERATIONS AND  0 ARE EQUILIBRIUM ITERATIONS.


                              INCREMENT NUMBER   107
                              FREQUENCY =   13.975827    


 ITERATION SUMMARY FOR THE INCREMENT:   0 TOTAL ITERATIONS, OF WHICH
   0 ARE SEVERE DISCONTINUITY ITERATIONS AND  0 ARE EQUILIBRIUM ITERATIONS.


                              INCREMENT NUMBER   108
                              FREQUENCY =   14.718986    


 ITERATION SUMMARY FOR THE INCREMENT:   0 TOTAL ITERATIONS, OF WHICH
   0 ARE SEVERE DISCONTINUITY ITERATIONS AND  0 ARE EQUILIBRIUM ITERATIONS.


                              INCREMENT NUMBER   109
                              FREQUENCY =   15.493531    


 ITERATION SUMMARY FOR THE INCREMENT:   0 TOTAL ITERATIONS, OF WHICH
   0 ARE SEVERE DISCONTINUITY ITERATIONS AND  0 ARE EQUILIBRIUM ITERATIONS.


                              INCREMENT NUMBER   110
                              FREQUENCY =   16.300493    


 ITERATION SUMMARY FOR THE INCREMENT:   0 TOTAL ITERATIONS, OF WHICH
   0 ARE SEVERE DISCONTINUITY ITERATIONS AND  0 ARE EQUILIBRIUM ITERATIONS.


                              INCREMENT NUMBER   111
                              FREQUENCY =   17.140929    


 ITERATION SUMMARY FOR THE INCREMENT:   0 TOTAL ITERATIONS, OF WHICH
   0 ARE SEVERE DISCONTINUITY ITERATIONS AND  0 ARE EQUILIBRIUM ITERATIONS.


                              INCREMENT NUMBER   112
                              FREQUENCY =   18.015922    


 ITERATION SUMMARY FOR THE INCREMENT:   0 TOTAL ITERATIONS, OF WHICH
   0 ARE SEVERE DISCONTINUITY ITERATIONS AND  0 ARE EQUILIBRIUM ITERATIONS.


                              INCREMENT NUMBER   113
                              FREQUENCY =   18.926583    


 ITERATION SUMMARY FOR THE INCREMENT:   0 TOTAL ITERATIONS, OF WHICH
   0 ARE SEVERE DISCONTINUITY ITERATIONS AND  0 ARE EQUILIBRIUM ITERATIONS.


                              INCREMENT NUMBER   114
                              FREQUENCY =   19.874050    


 ITERATION SUMMARY FOR THE INCREMENT:   0 TOTAL ITERATIONS, OF WHICH
   0 ARE SEVERE DISCONTINUITY ITERATIONS AND  0 ARE EQUILIBRIUM ITERATIONS.


                              INCREMENT NUMBER   115
                              FREQUENCY =   20.859487    


 ITERATION SUMMARY FOR THE INCREMENT:   0 TOTAL ITERATIONS, OF WHICH
   0 ARE SEVERE DISCONTINUITY ITERATIONS AND  0 ARE EQUILIBRIUM ITERATIONS.


                              INCREMENT NUMBER   116
                              FREQUENCY =   21.884091    


 ITERATION SUMMARY FOR THE INCREMENT:   0 TOTAL ITERATIONS, OF WHICH
   0 ARE SEVERE DISCONTINUITY ITERATIONS AND  0 ARE EQUILIBRIUM ITERATIONS.


                              INCREMENT NUMBER   117
                              FREQUENCY =   22.949083    


 ITERATION SUMMARY FOR THE INCREMENT:   0 TOTAL ITERATIONS, OF WHICH
   0 ARE SEVERE DISCONTINUITY ITERATIONS AND  0 ARE EQUILIBRIUM ITERATIONS.


                              INCREMENT NUMBER   118
                              FREQUENCY =   23.042943    


 ITERATION SUMMARY FOR THE INCREMENT:   0 TOTAL ITERATIONS, OF WHICH
   0 ARE SEVERE DISCONTINUITY ITERATIONS AND  0 ARE EQUILIBRIUM ITERATIONS.


                              INCREMENT NUMBER   119
                              FREQUENCY =   23.138047    


 ITERATION SUMMARY FOR THE INCREMENT:   0 TOTAL ITERATIONS, OF WHICH
   0 ARE SEVERE DISCONTINUITY ITERATIONS AND  0 ARE EQUILIBRIUM ITERATIONS.


                              INCREMENT NUMBER   120
                              FREQUENCY =   23.234427    


 ITERATION SUMMARY FOR THE INCREMENT:   0 TOTAL ITERATIONS, OF WHICH
   0 ARE SEVERE DISCONTINUITY ITERATIONS AND  0 ARE EQUILIBRIUM ITERATIONS.


                              INCREMENT NUMBER   121
                              FREQUENCY =   23.332118    


 ITERATION SUMMARY FOR THE INCREMENT:   0 TOTAL ITERATIONS, OF WHICH
   0 ARE SEVERE DISCONTINUITY ITERATIONS AND  0 ARE EQUILIBRIUM ITERATIONS.


                              INCREMENT NUMBER   122
                              FREQUENCY =   23.431154    


 ITERATION SUMMARY FOR THE INCREMENT:   0 TOTAL ITERATIONS, OF WHICH
   0 ARE SEVERE DISCONTINUITY ITERATIONS AND  0 ARE EQUILIBRIUM ITERATIONS.


                              INCREMENT NUMBER   123
                              FREQUENCY =   23.531570    


 ITERATION SUMMARY FOR THE INCREMENT:   0 TOTAL ITERATIONS, OF WHICH
   0 ARE SEVERE DISCONTINUITY ITERATIONS AND  0 ARE EQUILIBRIUM ITERATIONS.


                              INCREMENT NUMBER   124
                              FREQUENCY =   23.633405    


 ITERATION SUMMARY FOR THE INCREMENT:   0 TOTAL ITERATIONS, OF WHICH
   0 ARE SEVERE DISCONTINUITY ITERATIONS AND  0 ARE EQUILIBRIUM ITERATIONS.


                              INCREMENT NUMBER   125
                              FREQUENCY =   23.736699    


 ITERATION SUMMARY FOR THE INCREMENT:   0 TOTAL ITERATIONS, OF WHICH
   0 ARE SEVERE DISCONTINUITY ITERATIONS AND  0 ARE EQUILIBRIUM ITERATIONS.


                              INCREMENT NUMBER   126
                              FREQUENCY =   23.841491    


 ITERATION SUMMARY FOR THE INCREMENT:   0 TOTAL ITERATIONS, OF WHICH
   0 ARE SEVERE DISCONTINUITY ITERATIONS AND  0 ARE EQUILIBRIUM ITERATIONS.


                              INCREMENT NUMBER   127
                              FREQUENCY =   23.947826    


 ITERATION SUMMARY FOR THE INCREMENT:   0 TOTAL ITERATIONS, OF WHICH
   0 ARE SEVERE DISCONTINUITY ITERATIONS AND  0 ARE EQUILIBRIUM ITERATIONS.


                              INCREMENT NUMBER   128
                              FREQUENCY =   24.055747    


 ITERATION SUMMARY FOR THE INCREMENT:   0 TOTAL ITERATIONS, OF WHICH
   0 ARE SEVERE DISCONTINUITY ITERATIONS AND  0 ARE EQUILIBRIUM ITERATIONS.


                              INCREMENT NUMBER   129
                              FREQUENCY =   24.165301    


 ITERATION SUMMARY FOR THE INCREMENT:   0 TOTAL ITERATIONS, OF WHICH
   0 ARE SEVERE DISCONTINUITY ITERATIONS AND  0 ARE EQUILIBRIUM ITERATIONS.


                              INCREMENT NUMBER   130
                              FREQUENCY =   24.276537    


 ITERATION SUMMARY FOR THE INCREMENT:   0 TOTAL ITERATIONS, OF WHICH
   0 ARE SEVERE DISCONTINUITY ITERATIONS AND  0 ARE EQUILIBRIUM ITERATIONS.


                              INCREMENT NUMBER   131
                              FREQUENCY =   24.389505    


 ITERATION SUMMARY FOR THE INCREMENT:   0 TOTAL ITERATIONS, OF WHICH
   0 ARE SEVERE DISCONTINUITY ITERATIONS AND  0 ARE EQUILIBRIUM ITERATIONS.


                              INCREMENT NUMBER   132
                              FREQUENCY =   24.504260    


 ITERATION SUMMARY FOR THE INCREMENT:   0 TOTAL ITERATIONS, OF WHICH
   0 ARE SEVERE DISCONTINUITY ITERATIONS AND  0 ARE EQUILIBRIUM ITERATIONS.


                              INCREMENT NUMBER   133
                              FREQUENCY =   24.620858    


 ITERATION SUMMARY FOR THE INCREMENT:   0 TOTAL ITERATIONS, OF WHICH
   0 ARE SEVERE DISCONTINUITY ITERATIONS AND  0 ARE EQUILIBRIUM ITERATIONS.


                              INCREMENT NUMBER   134
                              FREQUENCY =   24.739356    


 ITERATION SUMMARY FOR THE INCREMENT:   0 TOTAL ITERATIONS, OF WHICH
   0 ARE SEVERE DISCONTINUITY ITERATIONS AND  0 ARE EQUILIBRIUM ITERATIONS.


                              INCREMENT NUMBER   135
                              FREQUENCY =   24.859816    


 ITERATION SUMMARY FOR THE INCREMENT:   0 TOTAL ITERATIONS, OF WHICH
   0 ARE SEVERE DISCONTINUITY ITERATIONS AND  0 ARE EQUILIBRIUM ITERATIONS.


                              INCREMENT NUMBER   136
                              FREQUENCY =   24.982303    


 ITERATION SUMMARY FOR THE INCREMENT:   0 TOTAL ITERATIONS, OF WHICH
   0 ARE SEVERE DISCONTINUITY ITERATIONS AND  0 ARE EQUILIBRIUM ITERATIONS.


                              INCREMENT NUMBER   137
                              FREQUENCY =   25.106886    


 ITERATION SUMMARY FOR THE INCREMENT:   0 TOTAL ITERATIONS, OF WHICH
   0 ARE SEVERE DISCONTINUITY ITERATIONS AND  0 ARE EQUILIBRIUM ITERATIONS.


                              INCREMENT NUMBER   138
                              FREQUENCY =   25.233634    


 ITERATION SUMMARY FOR THE INCREMENT:   0 TOTAL ITERATIONS, OF WHICH
   0 ARE SEVERE DISCONTINUITY ITERATIONS AND  0 ARE EQUILIBRIUM ITERATIONS.


                              INCREMENT NUMBER   139
                              FREQUENCY =   25.362624    


 ITERATION SUMMARY FOR THE INCREMENT:   0 TOTAL ITERATIONS, OF WHICH
   0 ARE SEVERE DISCONTINUITY ITERATIONS AND  0 ARE EQUILIBRIUM ITERATIONS.


                              INCREMENT NUMBER   140
                              FREQUENCY =   25.493934    


 ITERATION SUMMARY FOR THE INCREMENT:   0 TOTAL ITERATIONS, OF WHICH
   0 ARE SEVERE DISCONTINUITY ITERATIONS AND  0 ARE EQUILIBRIUM ITERATIONS.


                              INCREMENT NUMBER   141
                              FREQUENCY =   25.627649    


 ITERATION SUMMARY FOR THE INCREMENT:   0 TOTAL ITERATIONS, OF WHICH
   0 ARE SEVERE DISCONTINUITY ITERATIONS AND  0 ARE EQUILIBRIUM ITERATIONS.


                              INCREMENT NUMBER   142
                              FREQUENCY =   25.763856    


 ITERATION SUMMARY FOR THE INCREMENT:   0 TOTAL ITERATIONS, OF WHICH
   0 ARE SEVERE DISCONTINUITY ITERATIONS AND  0 ARE EQUILIBRIUM ITERATIONS.


                              INCREMENT NUMBER   143
                              FREQUENCY =   25.902648    


 ITERATION SUMMARY FOR THE INCREMENT:   0 TOTAL ITERATIONS, OF WHICH
   0 ARE SEVERE DISCONTINUITY ITERATIONS AND  0 ARE EQUILIBRIUM ITERATIONS.


                              INCREMENT NUMBER   144
                              FREQUENCY =   26.044126    


 ITERATION SUMMARY FOR THE INCREMENT:   0 TOTAL ITERATIONS, OF WHICH
   0 ARE SEVERE DISCONTINUITY ITERATIONS AND  0 ARE EQUILIBRIUM ITERATIONS.


                              INCREMENT NUMBER   145
                              FREQUENCY =   26.188392    


 ITERATION SUMMARY FOR THE INCREMENT:   0 TOTAL ITERATIONS, OF WHICH
   0 ARE SEVERE DISCONTINUITY ITERATIONS AND  0 ARE EQUILIBRIUM ITERATIONS.


                              INCREMENT NUMBER   146
                              FREQUENCY =   26.335558    


 ITERATION SUMMARY FOR THE INCREMENT:   0 TOTAL ITERATIONS, OF WHICH
   0 ARE SEVERE DISCONTINUITY ITERATIONS AND  0 ARE EQUILIBRIUM ITERATIONS.


                              INCREMENT NUMBER   147
                              FREQUENCY =   26.485742    


 ITERATION SUMMARY FOR THE INCREMENT:   0 TOTAL ITERATIONS, OF WHICH
   0 ARE SEVERE DISCONTINUITY ITERATIONS AND  0 ARE EQUILIBRIUM ITERATIONS.


                              INCREMENT NUMBER   148
                              FREQUENCY =   26.639069    


 ITERATION SUMMARY FOR THE INCREMENT:   0 TOTAL ITERATIONS, OF WHICH
   0 ARE SEVERE DISCONTINUITY ITERATIONS AND  0 ARE EQUILIBRIUM ITERATIONS.


                              INCREMENT NUMBER   149
                              FREQUENCY =   26.795673    


 ITERATION SUMMARY FOR THE INCREMENT:   0 TOTAL ITERATIONS, OF WHICH
   0 ARE SEVERE DISCONTINUITY ITERATIONS AND  0 ARE EQUILIBRIUM ITERATIONS.


                              INCREMENT NUMBER   150
                              FREQUENCY =   26.955696    


 ITERATION SUMMARY FOR THE INCREMENT:   0 TOTAL ITERATIONS, OF WHICH
   0 ARE SEVERE DISCONTINUITY ITERATIONS AND  0 ARE EQUILIBRIUM ITERATIONS.


                              INCREMENT NUMBER   151
                              FREQUENCY =   27.119289    


 ITERATION SUMMARY FOR THE INCREMENT:   0 TOTAL ITERATIONS, OF WHICH
   0 ARE SEVERE DISCONTINUITY ITERATIONS AND  0 ARE EQUILIBRIUM ITERATIONS.


                              INCREMENT NUMBER   152
                              FREQUENCY =   27.286616    


 ITERATION SUMMARY FOR THE INCREMENT:   0 TOTAL ITERATIONS, OF WHICH
   0 ARE SEVERE DISCONTINUITY ITERATIONS AND  0 ARE EQUILIBRIUM ITERATIONS.


                              INCREMENT NUMBER   153
                              FREQUENCY =   27.457850    


 ITERATION SUMMARY FOR THE INCREMENT:   0 TOTAL ITERATIONS, OF WHICH
   0 ARE SEVERE DISCONTINUITY ITERATIONS AND  0 ARE EQUILIBRIUM ITERATIONS.


                              INCREMENT NUMBER   154
                              FREQUENCY =   27.633178    


 ITERATION SUMMARY FOR THE INCREMENT:   0 TOTAL ITERATIONS, OF WHICH
   0 ARE SEVERE DISCONTINUITY ITERATIONS AND  0 ARE EQUILIBRIUM ITERATIONS.


                              INCREMENT NUMBER   155
                              FREQUENCY =   27.812801    


 ITERATION SUMMARY FOR THE INCREMENT:   0 TOTAL ITERATIONS, OF WHICH
   0 ARE SEVERE DISCONTINUITY ITERATIONS AND  0 ARE EQUILIBRIUM ITERATIONS.


                              INCREMENT NUMBER   156
                              FREQUENCY =   27.996937    


 ITERATION SUMMARY FOR THE INCREMENT:   0 TOTAL ITERATIONS, OF WHICH
   0 ARE SEVERE DISCONTINUITY ITERATIONS AND  0 ARE EQUILIBRIUM ITERATIONS.


                              INCREMENT NUMBER   157
                              FREQUENCY =   28.185817    


 ITERATION SUMMARY FOR THE INCREMENT:   0 TOTAL ITERATIONS, OF WHICH
   0 ARE SEVERE DISCONTINUITY ITERATIONS AND  0 ARE EQUILIBRIUM ITERATIONS.


                              INCREMENT NUMBER   158
[...]
   0 ARE SEVERE DISCONTINUITY ITERATIONS AND  0 ARE EQUILIBRIUM ITERATIONS.


                              INCREMENT NUMBER   344
                              FREQUENCY =   178.90537    


 ITERATION SUMMARY FOR THE INCREMENT:   0 TOTAL ITERATIONS, OF WHICH
   0 ARE SEVERE DISCONTINUITY ITERATIONS AND  0 ARE EQUILIBRIUM ITERATIONS.


                              INCREMENT NUMBER   345
                              FREQUENCY =   179.89174    


 ITERATION SUMMARY FOR THE INCREMENT:   0 TOTAL ITERATIONS, OF WHICH
   0 ARE SEVERE DISCONTINUITY ITERATIONS AND  0 ARE EQUILIBRIUM ITERATIONS.


                              INCREMENT NUMBER   346
                              FREQUENCY =   180.74523    


 ITERATION SUMMARY FOR THE INCREMENT:   0 TOTAL ITERATIONS, OF WHICH
   0 ARE SEVERE DISCONTINUITY ITERATIONS AND  0 ARE EQUILIBRIUM ITERATIONS.


                              INCREMENT NUMBER   347
                              FREQUENCY =   181.50399    


 ITERATION SUMMARY FOR THE INCREMENT:   0 TOTAL ITERATIONS, OF WHICH
   0 ARE SEVERE DISCONTINUITY ITERATIONS AND  0 ARE EQUILIBRIUM ITERATIONS.


                              INCREMENT NUMBER   348
                              FREQUENCY =   182.19113    


 ITERATION SUMMARY FOR THE INCREMENT:   0 TOTAL ITERATIONS, OF WHICH
   0 ARE SEVERE DISCONTINUITY ITERATIONS AND  0 ARE EQUILIBRIUM ITERATIONS.


                              INCREMENT NUMBER   349
                              FREQUENCY =   182.82189    


 ITERATION SUMMARY FOR THE INCREMENT:   0 TOTAL ITERATIONS, OF WHICH
   0 ARE SEVERE DISCONTINUITY ITERATIONS AND  0 ARE EQUILIBRIUM ITERATIONS.


                              INCREMENT NUMBER   350
                              FREQUENCY =   183.40687    


 ITERATION SUMMARY FOR THE INCREMENT:   0 TOTAL ITERATIONS, OF WHICH
   0 ARE SEVERE DISCONTINUITY ITERATIONS AND  0 ARE EQUILIBRIUM ITERATIONS.


                              INCREMENT NUMBER   351
                              FREQUENCY =   183.95380    


 ITERATION SUMMARY FOR THE INCREMENT:   0 TOTAL ITERATIONS, OF WHICH
   0 ARE SEVERE DISCONTINUITY ITERATIONS AND  0 ARE EQUILIBRIUM ITERATIONS.


                              INCREMENT NUMBER   352
                              FREQUENCY =   184.46850    


 ITERATION SUMMARY FOR THE INCREMENT:   0 TOTAL ITERATIONS, OF WHICH
   0 ARE SEVERE DISCONTINUITY ITERATIONS AND  0 ARE EQUILIBRIUM ITERATIONS.


                              INCREMENT NUMBER   353
                              FREQUENCY =   184.95548    


 ITERATION SUMMARY FOR THE INCREMENT:   0 TOTAL ITERATIONS, OF WHICH
   0 ARE SEVERE DISCONTINUITY ITERATIONS AND  0 ARE EQUILIBRIUM ITERATIONS.


                              INCREMENT NUMBER   354
                              FREQUENCY =   185.41832    


 ITERATION SUMMARY FOR THE INCREMENT:   0 TOTAL ITERATIONS, OF WHICH
   0 ARE SEVERE DISCONTINUITY ITERATIONS AND  0 ARE EQUILIBRIUM ITERATIONS.


                              INCREMENT NUMBER   355
                              FREQUENCY =   185.85991    


 ITERATION SUMMARY FOR THE INCREMENT:   0 TOTAL ITERATIONS, OF WHICH
   0 ARE SEVERE DISCONTINUITY ITERATIONS AND  0 ARE EQUILIBRIUM ITERATIONS.


                              INCREMENT NUMBER   356
                              FREQUENCY =   186.28261    


 ITERATION SUMMARY FOR THE INCREMENT:   0 TOTAL ITERATIONS, OF WHICH
   0 ARE SEVERE DISCONTINUITY ITERATIONS AND  0 ARE EQUILIBRIUM ITERATIONS.


                              INCREMENT NUMBER   357
                              FREQUENCY =   186.68841    


 ITERATION SUMMARY FOR THE INCREMENT:   0 TOTAL ITERATIONS, OF WHICH
   0 ARE SEVERE DISCONTINUITY ITERATIONS AND  0 ARE EQUILIBRIUM ITERATIONS.


                              INCREMENT NUMBER   358
                              FREQUENCY =   187.07896    


 ITERATION SUMMARY FOR THE INCREMENT:   0 TOTAL ITERATIONS, OF WHICH
   0 ARE SEVERE DISCONTINUITY ITERATIONS AND  0 ARE EQUILIBRIUM ITERATIONS.


                              INCREMENT NUMBER   359
                              FREQUENCY =   187.45567    


 ITERATION SUMMARY FOR THE INCREMENT:   0 TOTAL ITERATIONS, OF WHICH
   0 ARE SEVERE DISCONTINUITY ITERATIONS AND  0 ARE EQUILIBRIUM ITERATIONS.


                              INCREMENT NUMBER   360
                              FREQUENCY =   187.81975    


 ITERATION SUMMARY FOR THE INCREMENT:   0 TOTAL ITERATIONS, OF WHICH
   0 ARE SEVERE DISCONTINUITY ITERATIONS AND  0 ARE EQUILIBRIUM ITERATIONS.


                              INCREMENT NUMBER   361
                              FREQUENCY =   188.17227    


 ITERATION SUMMARY FOR THE INCREMENT:   0 TOTAL ITERATIONS, OF WHICH
   0 ARE SEVERE DISCONTINUITY ITERATIONS AND  0 ARE EQUILIBRIUM ITERATIONS.


                              INCREMENT NUMBER   362
                              FREQUENCY =   188.51413    


 ITERATION SUMMARY FOR THE INCREMENT:   0 TOTAL ITERATIONS, OF WHICH
   0 ARE SEVERE DISCONTINUITY ITERATIONS AND  0 ARE EQUILIBRIUM ITERATIONS.


                              INCREMENT NUMBER   363
                              FREQUENCY =   188.84614    


 ITERATION SUMMARY FOR THE INCREMENT:   0 TOTAL ITERATIONS, OF WHICH
   0 ARE SEVERE DISCONTINUITY ITERATIONS AND  0 ARE EQUILIBRIUM ITERATIONS.


                              INCREMENT NUMBER   364
                              FREQUENCY =   189.16901    


 ITERATION SUMMARY FOR THE INCREMENT:   0 TOTAL ITERATIONS, OF WHICH
   0 ARE SEVERE DISCONTINUITY ITERATIONS AND  0 ARE EQUILIBRIUM ITERATIONS.


                              INCREMENT NUMBER   365
                              FREQUENCY =   189.48337    


 ITERATION SUMMARY FOR THE INCREMENT:   0 TOTAL ITERATIONS, OF WHICH
   0 ARE SEVERE DISCONTINUITY ITERATIONS AND  0 ARE EQUILIBRIUM ITERATIONS.


                              INCREMENT NUMBER   366
                              FREQUENCY =   189.78980    


 ITERATION SUMMARY FOR THE INCREMENT:   0 TOTAL ITERATIONS, OF WHICH
   0 ARE SEVERE DISCONTINUITY ITERATIONS AND  0 ARE EQUILIBRIUM ITERATIONS.


                              INCREMENT NUMBER   367
                              FREQUENCY =   190.08879    


 ITERATION SUMMARY FOR THE INCREMENT:   0 TOTAL ITERATIONS, OF WHICH
   0 ARE SEVERE DISCONTINUITY ITERATIONS AND  0 ARE EQUILIBRIUM ITERATIONS.


                              INCREMENT NUMBER   368
                              FREQUENCY =   190.38081    


 ITERATION SUMMARY FOR THE INCREMENT:   0 TOTAL ITERATIONS, OF WHICH
   0 ARE SEVERE DISCONTINUITY ITERATIONS AND  0 ARE EQUILIBRIUM ITERATIONS.


                              INCREMENT NUMBER   369
                              FREQUENCY =   190.66626    


 ITERATION SUMMARY FOR THE INCREMENT:   0 TOTAL ITERATIONS, OF WHICH
   0 ARE SEVERE DISCONTINUITY ITERATIONS AND  0 ARE EQUILIBRIUM ITERATIONS.


                              INCREMENT NUMBER   370
                              FREQUENCY =   190.94552    


 ITERATION SUMMARY FOR THE INCREMENT:   0 TOTAL ITERATIONS, OF WHICH
   0 ARE SEVERE DISCONTINUITY ITERATIONS AND  0 ARE EQUILIBRIUM ITERATIONS.


                              INCREMENT NUMBER   371
                              FREQUENCY =   191.21894    


 ITERATION SUMMARY FOR THE INCREMENT:   0 TOTAL ITERATIONS, OF WHICH
   0 ARE SEVERE DISCONTINUITY ITERATIONS AND  0 ARE EQUILIBRIUM ITERATIONS.


                              INCREMENT NUMBER   372
                              FREQUENCY =   191.48683    


 ITERATION SUMMARY FOR THE INCREMENT:   0 TOTAL ITERATIONS, OF WHICH
   0 ARE SEVERE DISCONTINUITY ITERATIONS AND  0 ARE EQUILIBRIUM ITERATIONS.


                              INCREMENT NUMBER   373
                              FREQUENCY =   191.74946    


 ITERATION SUMMARY FOR THE INCREMENT:   0 TOTAL ITERATIONS, OF WHICH
   0 ARE SEVERE DISCONTINUITY ITERATIONS AND  0 ARE EQUILIBRIUM ITERATIONS.


                              INCREMENT NUMBER   374
                              FREQUENCY =   192.00711    


 ITERATION SUMMARY FOR THE INCREMENT:   0 TOTAL ITERATIONS, OF WHICH
   0 ARE SEVERE DISCONTINUITY ITERATIONS AND  0 ARE EQUILIBRIUM ITERATIONS.


                              INCREMENT NUMBER   375
                              FREQUENCY =   192.26002    


 ITERATION SUMMARY FOR THE INCREMENT:   0 TOTAL ITERATIONS, OF WHICH
   0 ARE SEVERE DISCONTINUITY ITERATIONS AND  0 ARE EQUILIBRIUM ITERATIONS.


                              INCREMENT NUMBER   376
                              FREQUENCY =   192.50842    


 ITERATION SUMMARY FOR THE INCREMENT:   0 TOTAL ITERATIONS, OF WHICH
   0 ARE SEVERE DISCONTINUITY ITERATIONS AND  0 ARE EQUILIBRIUM ITERATIONS.


                              INCREMENT NUMBER   377
                              FREQUENCY =   192.75250    


 ITERATION SUMMARY FOR THE INCREMENT:   0 TOTAL ITERATIONS, OF WHICH
   0 ARE SEVERE DISCONTINUITY ITERATIONS AND  0 ARE EQUILIBRIUM ITERATIONS.


                              INCREMENT NUMBER   378
                              FREQUENCY =   192.99246    


 ITERATION SUMMARY FOR THE INCREMENT:   0 TOTAL ITERATIONS, OF WHICH
   0 ARE SEVERE DISCONTINUITY ITERATIONS AND  0 ARE EQUILIBRIUM ITERATIONS.


                              INCREMENT NUMBER   379
                              FREQUENCY =   193.22849    


 ITERATION SUMMARY FOR THE INCREMENT:   0 TOTAL ITERATIONS, OF WHICH
   0 ARE SEVERE DISCONTINUITY ITERATIONS AND  0 ARE EQUILIBRIUM ITERATIONS.


                              INCREMENT NUMBER   380
                              FREQUENCY =   193.46075    


 ITERATION SUMMARY FOR THE INCREMENT:   0 TOTAL ITERATIONS, OF WHICH
   0 ARE SEVERE DISCONTINUITY ITERATIONS AND  0 ARE EQUILIBRIUM ITERATIONS.


                              INCREMENT NUMBER   381
                              FREQUENCY =   193.68939    


 ITERATION SUMMARY FOR THE INCREMENT:   0 TOTAL ITERATIONS, OF WHICH
   0 ARE SEVERE DISCONTINUITY ITERATIONS AND  0 ARE EQUILIBRIUM ITERATIONS.


                              INCREMENT NUMBER   382
                              FREQUENCY =   193.91456    


 ITERATION SUMMARY FOR THE INCREMENT:   0 TOTAL ITERATIONS, OF WHICH
   0 ARE SEVERE DISCONTINUITY ITERATIONS AND  0 ARE EQUILIBRIUM ITERATIONS.


                              INCREMENT NUMBER   383
                              FREQUENCY =   194.13640    


 ITERATION SUMMARY FOR THE INCREMENT:   0 TOTAL ITERATIONS, OF WHICH
   0 ARE SEVERE DISCONTINUITY ITERATIONS AND  0 ARE EQUILIBRIUM ITERATIONS.


                              INCREMENT NUMBER   384
                              FREQUENCY =   194.35503    


 ITERATION SUMMARY FOR THE INCREMENT:   0 TOTAL ITERATIONS, OF WHICH
   0 ARE SEVERE DISCONTINUITY ITERATIONS AND  0 ARE EQUILIBRIUM ITERATIONS.


                              INCREMENT NUMBER   385
                              FREQUENCY =   194.57058    


 ITERATION SUMMARY FOR THE INCREMENT:   0 TOTAL ITERATIONS, OF WHICH
   0 ARE SEVERE DISCONTINUITY ITERATIONS AND  0 ARE EQUILIBRIUM ITERATIONS.


                              INCREMENT NUMBER   386
                              FREQUENCY =   194.78315    


 ITERATION SUMMARY FOR THE INCREMENT:   0 TOTAL ITERATIONS, OF WHICH
   0 ARE SEVERE DISCONTINUITY ITERATIONS AND  0 ARE EQUILIBRIUM ITERATIONS.


                              INCREMENT NUMBER   387
                              FREQUENCY =   194.99286    


 ITERATION SUMMARY FOR THE INCREMENT:   0 TOTAL ITERATIONS, OF WHICH
   0 ARE SEVERE DISCONTINUITY ITERATIONS AND  0 ARE EQUILIBRIUM ITERATIONS.


                              INCREMENT NUMBER   388
                              FREQUENCY =   195.19981    


 ITERATION SUMMARY FOR THE INCREMENT:   0 TOTAL ITERATIONS, OF WHICH
   0 ARE SEVERE DISCONTINUITY ITERATIONS AND  0 ARE EQUILIBRIUM ITERATIONS.


                              INCREMENT NUMBER   389
                              FREQUENCY =   195.40409    


 ITERATION SUMMARY FOR THE INCREMENT:   0 TOTAL ITERATIONS, OF WHICH
   0 ARE SEVERE DISCONTINUITY ITERATIONS AND  0 ARE EQUILIBRIUM ITERATIONS.


                              INCREMENT NUMBER   390
                              FREQUENCY =   195.60578    


 ITERATION SUMMARY FOR THE INCREMENT:   0 TOTAL ITERATIONS, OF WHICH
   0 ARE SEVERE DISCONTINUITY ITERATIONS AND  0 ARE EQUILIBRIUM ITERATIONS.


                              INCREMENT NUMBER   391
                              FREQUENCY =   195.80499    


 ITERATION SUMMARY FOR THE INCREMENT:   0 TOTAL ITERATIONS, OF WHICH
   0 ARE SEVERE DISCONTINUITY ITERATIONS AND  0 ARE EQUILIBRIUM ITERATIONS.


                              INCREMENT NUMBER   392
                              FREQUENCY =   196.00178    


 ITERATION SUMMARY FOR THE INCREMENT:   0 TOTAL ITERATIONS, OF WHICH
   0 ARE SEVERE DISCONTINUITY ITERATIONS AND  0 ARE EQUILIBRIUM ITERATIONS.


                              INCREMENT NUMBER   393
                              FREQUENCY =   196.19623    


 ITERATION SUMMARY FOR THE INCREMENT:   0 TOTAL ITERATIONS, OF WHICH
   0 ARE SEVERE DISCONTINUITY ITERATIONS AND  0 ARE EQUILIBRIUM ITERATIONS.


                              INCREMENT NUMBER   394
                              FREQUENCY =   196.38841    


 ITERATION SUMMARY FOR THE INCREMENT:   0 TOTAL ITERATIONS, OF WHICH
   0 ARE SEVERE DISCONTINUITY ITERATIONS AND  0 ARE EQUILIBRIUM ITERATIONS.


                              INCREMENT NUMBER   395
                              FREQUENCY =   196.57841    


 ITERATION SUMMARY FOR THE INCREMENT:   0 TOTAL ITERATIONS, OF WHICH
   0 ARE SEVERE DISCONTINUITY ITERATIONS AND  0 ARE EQUILIBRIUM ITERATIONS.


                              INCREMENT NUMBER   396
                              FREQUENCY =   196.76627    


 ITERATION SUMMARY FOR THE INCREMENT:   0 TOTAL ITERATIONS, OF WHICH
   0 ARE SEVERE DISCONTINUITY ITERATIONS AND  0 ARE EQUILIBRIUM ITERATIONS.


                              INCREMENT NUMBER   397
                              FREQUENCY =   196.95206    


 ITERATION SUMMARY FOR THE INCREMENT:   0 TOTAL ITERATIONS, OF WHICH
   0 ARE SEVERE DISCONTINUITY ITERATIONS AND  0 ARE EQUILIBRIUM ITERATIONS.


                              INCREMENT NUMBER   398
                              FREQUENCY =   197.13585    


 ITERATION SUMMARY FOR THE INCREMENT:   0 TOTAL ITERATIONS, OF WHICH
   0 ARE SEVERE DISCONTINUITY ITERATIONS AND  0 ARE EQUILIBRIUM ITERATIONS.


                              INCREMENT NUMBER   399
                              FREQUENCY =   197.31769    


 ITERATION SUMMARY FOR THE INCREMENT:   0 TOTAL ITERATIONS, OF WHICH
   0 ARE SEVERE DISCONTINUITY ITERATIONS AND  0 ARE EQUILIBRIUM ITERATIONS.


                              INCREMENT NUMBER   400
                              FREQUENCY =   197.49763    


 ITERATION SUMMARY FOR THE INCREMENT:   0 TOTAL ITERATIONS, OF WHICH
   0 ARE SEVERE DISCONTINUITY ITERATIONS AND  0 ARE EQUILIBRIUM ITERATIONS.


                              INCREMENT NUMBER   401
                              FREQUENCY =   197.67573    


 ITERATION SUMMARY FOR THE INCREMENT:   0 TOTAL ITERATIONS, OF WHICH
   0 ARE SEVERE DISCONTINUITY ITERATIONS AND  0 ARE EQUILIBRIUM ITERATIONS.


                              INCREMENT NUMBER   402
                              FREQUENCY =   197.85204    


 ITERATION SUMMARY FOR THE INCREMENT:   0 TOTAL ITERATIONS, OF WHICH
   0 ARE SEVERE DISCONTINUITY ITERATIONS AND  0 ARE EQUILIBRIUM ITERATIONS.


                              INCREMENT NUMBER   403
                              FREQUENCY =   198.02659    


 ITERATION SUMMARY FOR THE INCREMENT:   0 TOTAL ITERATIONS, OF WHICH
   0 ARE SEVERE DISCONTINUITY ITERATIONS AND  0 ARE EQUILIBRIUM ITERATIONS.


                              INCREMENT NUMBER   404
                              FREQUENCY =   198.19945    


 ITERATION SUMMARY FOR THE INCREMENT:   0 TOTAL ITERATIONS, OF WHICH
   0 ARE SEVERE DISCONTINUITY ITERATIONS AND  0 ARE EQUILIBRIUM ITERATIONS.


                              INCREMENT NUMBER   405
                              FREQUENCY =   198.37065    


 ITERATION SUMMARY FOR THE INCREMENT:   0 TOTAL ITERATIONS, OF WHICH
   0 ARE SEVERE DISCONTINUITY ITERATIONS AND  0 ARE EQUILIBRIUM ITERATIONS.


                              INCREMENT NUMBER   406
                              FREQUENCY =   198.54024    


 ITERATION SUMMARY FOR THE INCREMENT:   0 TOTAL ITERATIONS, OF WHICH
   0 ARE SEVERE DISCONTINUITY ITERATIONS AND  0 ARE EQUILIBRIUM ITERATIONS.


                              INCREMENT NUMBER   407
                              FREQUENCY =   198.70825    


 ITERATION SUMMARY FOR THE INCREMENT:   0 TOTAL ITERATIONS, OF WHICH
   0 ARE SEVERE DISCONTINUITY ITERATIONS AND  0 ARE EQUILIBRIUM ITERATIONS.


                              INCREMENT NUMBER   408
                              FREQUENCY =   198.87473    


 ITERATION SUMMARY FOR THE INCREMENT:   0 TOTAL ITERATIONS, OF WHICH
   0 ARE SEVERE DISCONTINUITY ITERATIONS AND  0 ARE EQUILIBRIUM ITERATIONS.


                              INCREMENT NUMBER   409
                              FREQUENCY =   199.03970    


 ITERATION SUMMARY FOR THE INCREMENT:   0 TOTAL ITERATIONS, OF WHICH
   0 ARE SEVERE DISCONTINUITY ITERATIONS AND  0 ARE EQUILIBRIUM ITERATIONS.


                              INCREMENT NUMBER   410
                              FREQUENCY =   199.20322    


 ITERATION SUMMARY FOR THE INCREMENT:   0 TOTAL ITERATIONS, OF WHICH
   0 ARE SEVERE DISCONTINUITY ITERATIONS AND  0 ARE EQUILIBRIUM ITERATIONS.


                              INCREMENT NUMBER   411
                              FREQUENCY =   199.36530    


 ITERATION SUMMARY FOR THE INCREMENT:   0 TOTAL ITERATIONS, OF WHICH
   0 ARE SEVERE DISCONTINUITY ITERATIONS AND  0 ARE EQUILIBRIUM ITERATIONS.


                              INCREMENT NUMBER   412
                              FREQUENCY =   199.52599    


 ITERATION SUMMARY FOR THE INCREMENT:   0 TOTAL ITERATIONS, OF WHICH
   0 ARE SEVERE DISCONTINUITY ITERATIONS AND  0 ARE EQUILIBRIUM ITERATIONS.


                              INCREMENT NUMBER   413
                              FREQUENCY =   199.68532    


 ITERATION SUMMARY FOR THE INCREMENT:   0 TOTAL ITERATIONS, OF WHICH
   0 ARE SEVERE DISCONTINUITY ITERATIONS AND  0 ARE EQUILIBRIUM ITERATIONS.


                              INCREMENT NUMBER   414
                              FREQUENCY =   199.84331    


 ITERATION SUMMARY FOR THE INCREMENT:   0 TOTAL ITERATIONS, OF WHICH
   0 ARE SEVERE DISCONTINUITY ITERATIONS AND  0 ARE EQUILIBRIUM ITERATIONS.


                              INCREMENT NUMBER   415
                              FREQUENCY =   200.00000    


 ITERATION SUMMARY FOR THE INCREMENT:   0 TOTAL ITERATIONS, OF WHICH
   0 ARE SEVERE DISCONTINUITY ITERATIONS AND  0 ARE EQUILIBRIUM ITERATIONS.


          THE ANALYSIS HAS BEEN COMPLETED



     ANALYSIS SUMMARY:
     TOTAL OF        517  INCREMENTS
                       0  CUTBACKS IN AUTOMATIC INCREMENTATION
                       0  ITERATIONS INCLUDING CONTACT ITERATIONS IF PRESENT
                       9  PASSES THROUGH THE EQUATION SOLVER OF WHICH 
                       2  INVOLVE MATRIX DECOMPOSITION, INCLUDING
                       0  DECOMPOSITION(S) OF THE MASS MATRIX
                       1  REORDERING OF EQUATIONS TO MINIMIZE WAVEFRONT
                       0  ADDITIONAL RESIDUAL EVALUATIONS FOR LINE SEARCHES
                       0  ADDITIONAL OPERATOR EVALUATIONS FOR LINE SEARCHES
                       1  WARNING MESSAGES DURING USER INPUT PROCESSING
                       0  WARNING MESSAGES DURING ANALYSIS
                       0  ANALYSIS WARNINGS ARE NUMERICAL PROBLEM MESSAGES
                       0  ANALYSIS WARNINGS ARE NEGATIVE EIGENVALUE MESSAGES
                       0  ERROR MESSAGES



     JOB TIME SUMMARY
       USER TIME (SEC)      =   2.6000    
       SYSTEM TIME (SEC)    =   1.1000    
       TOTAL CPU TIME (SEC) =   3.7000    
       WALLCLOCK TIME (SEC) =          4
