 Abaqus/Standard 6.14-1                  DATE 27-Jan-2016 TIME 19:21:36
 SUMMARY OF JOB INFORMATION:
 STEP  INC ATT SEVERE EQUIL TOTAL  TOTAL      STEP       INC OF       DOF    IF
               DISCON ITERS ITERS  TIME/    TIME/LPF    TIME/LPF    MONITOR RIKS
               ITERS               FREQ
   1     1   1     0     1     1  1.00       1.00       1.000     
   2     1   1     0     0     0  1.00       1.00e-036  1.000e-036
   3     1                        1.50e-008
   3     2                        0.0737   
   3     3                        0.147    
   3     4                        0.221    
   3     5                        0.295    
   3     6                        0.369    
   3     7                        0.442    
   3     8                        0.516    
   3     9                        0.590    
   3    10                        0.664    
   3    11                        0.737    
   3    12                        0.811    
   3    13                        0.885    
   3    14                        0.959    
   3    15                        1.03     
   3    16                        1.11     
   3    17                        1.18     
   3    18                        1.25     
   3    19                        1.33     
   3    20                        1.40     
   3    21                        1.47     
   3    22                        1.55     
   3    23                        1.62     
   3    24                        1.70     
   3    25                        1.77     
   3    26                        1.84     
   3    27                        1.92     
   3    28                        1.99     
   3    29                        2.06     
   3    30                        2.14     
   3    31                        2.21     
   3    32                        2.29     
   3    33                        2.36     
   3    34                        2.43     
   3    35                        2.51     
   3    36                        2.58     
   3    37                        2.65     
   3    38                        2.73     
   3    39                        2.80     
   3    40                        2.88     
   3    41                        2.95     
   3    42                        3.02     
   3    43                        3.10     
   3    44                        3.17     
   3    45                        3.24     
   3    46                        3.32     
   3    47                        3.39     
   3    48                        3.47     
   3    49                        3.54     
   3    50                        3.61     
   3    51                        3.69     
   3    52                        3.76     
   3    53                        3.83     
   3    54                        3.91     
   3    55                        3.98     
   3    56                        4.06     
   3    57                        4.13     
   3    58                        4.20     
   3    59                        4.28     
   3    60                        4.35     
   3    61                        4.42     
   3    62                        4.50     
   3    63                        4.57     
   3    64                        4.65     
   3    65                        4.72     
   3    66                        4.79     
   3    67                        4.87     
   3    68                        4.94     
   3    69                        5.01     
   3    70                        5.09     
   3    71                        5.16     
   3    72                        5.24     
   3    73                        5.31     
   3    74                        5.38     
   3    75                        5.46     
   3    76                        5.53     
   3    77                        5.60     
   3    78                        5.68     
   3    79                        5.75     
   3    80                        5.83     
   3    81                        5.90     
   3    82                        5.97     
   3    83                        6.05     
   3    84                        6.12     
   3    85                        6.19     
   3    86                        6.27     
   3    87                        6.34     
   3    88                        6.42     
   3    89                        6.49     
   3    90                        6.56     
   3    91                        6.64     
   3    92                        6.71     
   3    93                        6.78     
   3    94                        6.86     
   3    95                        6.93     
   3    96                        7.01     
   3    97                        7.08     
   3    98                        7.15     
   3    99                        7.23     
   3   100                        7.30     
   3   101                        7.37     
   3   102                        7.45     
   3   103                        7.52     
   3   104                        7.60     
   3   105                        7.67     
   3   106                        7.74     
   3   107                        7.82     
   3   108                        7.89     
   3   109                        7.96     
   3   110                        8.04     
   3   111                        8.11     
   3   112                        8.18     
   3   113                        8.26     
   3   114                        8.33     
   3   115                        8.41     
   3   116                        8.48     
   3   117                        8.55     
   3   118                        8.63     
   3   119                        8.70     
   3   120                        8.77     
   3   121                        8.85     
   3   122                        8.92     
   3   123                        9.00     
   3   124                        9.07     
   3   125                        9.14     
   3   126                        9.22     
   3   127                        9.29     
   3   128                        9.36     
   3   129                        9.44     
   3   130                        9.51     
   3   131                        9.59     
   3   132                        9.66     
   3   133                        9.73     
   3   134                        9.81     
   3   135                        9.88     
   3   136                        9.95     
   3   137                        10.0     
   3   138                        10.1     
   3   139                        10.2     
   3   140                        10.2     
   3   141                        10.3     
   3   142                        10.4     
   3   143                        10.5     
   3   144                        10.5     
   3   145                        10.6     
   3   146                        10.7     
   3   147                        10.8     
   3   148                        10.8     
   3   149                        10.9     
   3   150                        11.0     
   3   151                        11.1     
   3   152                        11.1     
   3   153                        11.2     
   3   154                        11.3     
   3   155                        11.4     
   3   156                        11.4     
   3   157                        11.5     
   3   158                        11.6     
   3   159                        11.7     
   3   160                        11.7     
   3   161                        11.8     
   3   162                        11.9     
   3   163                        11.9     
   3   164                        12.0     
   3   165                        12.1     
   3   166                        12.2     
   3   167                        12.2     
   3   168                        12.3     
   3   169                        12.4     
   3   170                        12.5     
   3   171                        12.5     
   3   172                        12.6     
   3   173                        12.7     
   3   174                        12.8     
   3   175                        12.8     
   3   176                        12.9     
   3   177                        13.0     
   3   178                        13.1     
   3   179                        13.1     
   3   180                        13.2     
   3   181                        13.3     
   3   182                        13.3     
   3   183                        13.4     
   3   184                        13.5     
   3   185                        13.6     
   3   186                        13.6     
   3   187                        13.7     
   3   188                        13.8     
   3   189                        13.9     
   3   190                        13.9     
   3   191                        14.0     
   3   192                        14.1     
   3   193                        14.2     
   3   194                        14.2     
   3   195                        14.3     
   3   196                        14.4     
   3   197                        14.5     
   3   198                        14.5     
   3   199                        14.6     
   3   200                        14.7     
   3   201                        14.7     
   3   202                        14.8     
   3   203                        14.9     
   3   204                        15.0     
   3   205                        15.0     
   3   206                        15.1     
   3   207                        15.2     
   3   208                        15.3     
   3   209                        15.3     
   3   210                        15.4     
   3   211                        15.5     
   3   212                        15.6     
   3   213                        15.6     
   3   214                        15.7     
   3   215                        15.8     
   3   216                        15.9     
   3   217                        15.9     
   3   218                        16.0     
   3   219                        16.1     
   3   220                        16.1     
   3   221                        16.2     
   3   222                        16.3     
   3   223                        16.4     
   3   224                        16.4     
   3   225                        16.5     
   3   226                        16.6     
   3   227                        16.7     
   3   228                        16.7     
   3   229                        16.8     
   3   230                        16.9     
   3   231                        17.0     
   3   232                        17.0     
   3   233                        17.1     
   3   234                        17.2     
   3   235                        17.3     
   3   236                        17.3     
   3   237                        17.4     
   3   238                        17.5     
   3   239                        17.5     
   3   240                        17.6     
   3   241                        17.7     
   3   242                        17.8     
   3   243                        17.8     
   3   244                        17.9     
   3   245                        18.0     
   3   246                        18.1     
   3   247                        18.1     
   3   248                        18.2     
   3   249                        18.3     
   3   250                        18.4     
   3   251                        18.4     
   3   252                        18.5     
   3   253                        18.6     
   3   254                        18.7     
   3   255                        18.7     
   3   256                        18.8     
   3   257                        18.9     
   3   258                        19.0     
   3   259                        19.0     
   3   260                        19.1     
   3   261                        19.2     
   3   262                        19.2     
   3   263                        19.3     
   3   264                        19.4     
   3   265                        19.5     
   3   266                        19.5     
   3   267                        19.6     
   3   268                        19.7     
   3   269                        19.8     
   3   270                        19.8     
   3   271                        19.9     
   3   272                        20.0     
   3   273                        20.1     
   3   274                        20.1     
   3   275                        20.2     
   3   276                        20.3     
   3   277                        20.4     
   3   278                        20.4     
   3   279                        20.5     
   3   280                        20.6     
   3   281                        20.6     
   3   282                        20.7     
   3   283                        20.8     
   3   284                        20.9     
   3   285                        20.9     
   3   286                        21.0     
   3   287                        21.1     
   3   288                        21.2     
   3   289                        21.2     
   3   290                        21.3     
   3   291                        21.4     
   3   292                        21.5     
   3   293                        21.5     
   3   294                        21.6     
   3   295                        21.7     
   3   296                        21.8     
   3   297                        21.8     
   3   298                        21.9     
   3   299                        22.0     
   3   300                        22.0     
   3   301                        22.1     
   3   302                        22.2     
   3   303                        22.3     
   3   304                        22.3     
   3   305                        22.4     
   3   306                        22.5     
   3   307                        22.6     
   3   308                        22.6     
   3   309                        22.7     
   3   310                        22.8     
   3   311                        22.9     
   3   312                        22.9     
   3   313                        23.0     
   3   314                        23.1     
   3   315                        23.2     
   3   316                        23.2     
   3   317                        23.3     
   3   318                        23.4     
   3   319                        23.4     
   3   320                        23.5     
   3   321                        23.6     
   3   322                        23.7     
   3   323                        23.7     
   3   324                        23.8     
   3   325                        23.9     
   3   326                        24.0     
   3   327                        24.0     
   3   328                        24.1     
   3   329                        24.2     
   3   330                        24.3     
   3   331                        24.3     
   3   332                        24.4     
   3   333                        24.5     
   3   334                        24.6     
   3   335                        24.6     
   3   336                        24.7     
   3   337                        24.8     
   3   338                        24.8     
   3   339                        24.9     
   3   340                        25.0     
   3   341                        25.1     
   3   342                        25.1     
   3   343                        25.2     
   3   344                        25.3     
   3   345                        25.4     
   3   346                        25.4     
   3   347                        25.5     
   3   348                        25.6     
   3   349                        25.7     
   3   350                        25.7     
   3   351                        25.8     
   3   352                        25.9     
   3   353                        26.0     
   3   354                        26.0     
   3   355                        26.1     
   3   356                        26.2     
   3   357                        26.3     
   3   358                        26.3     
   3   359                        26.4     
   3   360                        26.5     
   3   361                        26.5     
   3   362                        26.6     
   3   363                        26.7     
   3   364                        26.8     
   3   365                        26.8     
   3   366                        26.9     
   3   367                        27.0     
   3   368                        27.1     
   3   369                        27.1     
   3   370                        27.2     
   3   371                        27.3     
   3   372                        27.4     
   3   373                        27.4     
   3   374                        27.5     
   3   375                        27.6     
   3   376                        27.7     
   3   377                        27.7     
   3   378                        27.8     
   3   379                        27.9     
   3   380                        27.9     
   3   381                        28.0     
   3   382                        28.1     
   3   383                        28.2     
   3   384                        28.2     
   3   385                        28.3     
   3   386                        28.4     
   3   387                        28.5     
   3   388                        28.5     
   3   389                        28.6     
   3   390                        28.7     
   3   391                        28.8     
   3   392                        28.8     
   3   393                        28.9     
   3   394                        29.0     
   3   395                        29.1     
   3   396                        29.1     
   3   397                        29.2     
   3   398                        29.3     
   3   399                        29.3     
   3   400                        29.4     
   3   401                        29.5     
   3   402                        29.6     
   3   403                        29.6     
   3   404                        29.7     
   3   405                        29.8     
   3   406                        29.9     
   3   407                        29.9     
   3   408                        30.0     
   3   409                        30.1     
   3   410                        30.2     
   3   411                        30.2     
   3   412                        30.3     
   3   413                        30.4     
   3   414                        30.5     
   3   415                        30.5     
   3   416                        30.6     
   3   417                        30.7     
   3   418                        30.7     
   3   419                        30.8     
   3   420                        30.9     
   3   421                        31.0     
   3   422                        31.0     
   3   423                        31.1     
   3   424                        31.2     
   3   425                        31.3     
   3   426                        31.3     
   3   427                        31.4     
   3   428                        31.5     
   3   429                        31.6     
   3   430                        31.6     
   3   431                        31.7     
   3   432                        31.8     
   3   433                        31.9     
   3   434                        31.9     
   3   435                        32.0     
   3   436                        32.1     
   3   437                        32.1     
   3   438                        32.2     
   3   439                        32.3     
   3   440                        32.4     
   3   441                        32.4     
   3   442                        32.5     
   3   443                        32.6     
   3   444                        32.7     
   3   445                        32.7     
   3   446                        32.8     
   3   447                        32.9     
   3   448                        33.0     
   3   449                        33.0     
   3   450                        33.1     
   3   451                        33.2     
   3   452                        33.3     
   3   453                        33.3     
   3   454                        33.4     
   3   455                        33.5     
   3   456                        33.6     
   3   457                        33.6     
   3   458                        33.7     
   3   459                        33.8     
   3   460                        33.8     
   3   461                        33.9     
   3   462                        34.0     
   3   463                        34.1     
   3   464                        34.1     
   3   465                        34.2     
   3   466                        34.3     
   3   467                        34.4     
   3   468                        34.4     
   3   469                        34.5     
   3   470                        34.6     
   3   471                        34.7     
   3   472                        34.7     
   3   473                        34.8     
   3   474                        34.9     
   3   475                        35.0     
   3   476                        35.0     
   3   477                        35.1     
   3   478                        35.2     
   3   479                        35.2     
   3   480                        35.3     
   3   481                        35.4     
   3   482                        35.5     
   3   483                        35.5     
   3   484                        35.6     
   3   485                        35.7     
   3   486                        35.8     
   3   487                        35.8     
   3   488                        35.9     
   3   489                        36.0     
   3   490                        36.1     
   3   491                        36.1     
   3   492                        36.2     
   3   493                        36.3     
   3   494                        36.4     
   3   495                        36.4     
   3   496                        36.5     
   3   497                        36.6     
   3   498                        36.6     
   3   499                        36.7     
   3   500                        36.8     
   3   501                        36.9     
   3   502                        36.9     
   3   503                        37.0     
   3   504                        37.1     
   3   505                        37.2     
   3   506                        37.2     
   3   507                        37.3     
   3   508                        37.4     
   3   509                        37.5     
   3   510                        37.5     
   3   511                        37.6     
   3   512                        37.7     
   3   513                        37.8     
   3   514                        37.8     
   3   515                        37.9     
   3   516                        38.0     
   3   517                        38.0     
   3   518                        38.1     
   3   519                        38.2     
   3   520                        38.3     
   3   521                        38.3     
   3   522                        38.4     
   3   523                        38.5     
   3   524                        38.6     
   3   525                        38.6     
   3   526                        38.7     
   3   527                        38.8     
   3   528                        38.9     
   3   529                        38.9     
   3   530                        39.0     
   3   531                        39.1     
   3   532                        39.2     
   3   533                        39.2     
   3   534                        39.3     
   3   535                        39.4     
   3   536                        39.4     
   3   537                        39.5     
   3   538                        39.6     
   3   539                        39.7     
   3   540                        39.7     
   3   541                        39.8     
   3   542                        39.9     
   3   543                        40.0     
   3   544                        40.0     
   3   545                        40.1     
   3   546                        40.2     
   3   547                        40.3     
   3   548                        40.3     
   3   549                        40.4     
   3   550                        40.5     
   3   551                        40.6     
   3   552                        40.6     
   3   553                        40.7     
   3   554                        40.8     
   3   555                        40.9     
   3   556                        40.9     
   3   557                        41.0     
   3   558                        41.1     
   3   559                        41.1     
   3   560                        41.2     
   3   561                        41.3     
   3   562                        41.4     
   3   563                        41.4     
   3   564                        41.5     
   3   565                        41.6     
   3   566                        41.7     
   3   567                        41.7     
   3   568                        41.8     
   3   569                        41.9     
   3   570                        42.0     
   3   571                        42.0     
   3   572                        42.1     
   3   573                        42.2     
   3   574                        42.3     
   3   575                        42.3     
   3   576                        42.4     
   3   577                        42.5     
   3   578                        42.5     
   3   579                        42.6     
   3   580                        42.7     
   3   581                        42.8     
   3   582                        42.8     
   3   583                        42.9     
   3   584                        43.0     
   3   585                        43.1     
   3   586                        43.1     
   3   587                        43.2     
   3   588                        43.3     
   3   589                        43.4     
   3   590                        43.4     
   3   591                        43.5     
   3   592                        43.6     
   3   593                        43.7     
   3   594                        43.7     
   3   595                        43.8     
   3   596                        43.9     
   3   597                        43.9     
   3   598                        44.0     
   3   599                        44.1     
   3   600                        44.2     
   3   601                        44.2     
   3   602                        44.3     
   3   603                        44.4     
   3   604                        44.5     
   3   605                        44.5     
   3   606                        44.6     
   3   607                        44.7     
   3   608                        44.8     
   3   609                        44.8     
   3   610                        44.9     
   3   611                        45.0     
   3   612                        45.1     
   3   613                        45.1     
   3   614                        45.2     
   3   615                        45.3     
   3   616                        45.3     
   3   617                        45.4     
   3   618                        45.5     
   3   619                        45.6     
   3   620                        45.6     
   3   621                        45.7     
   3   622                        45.8     
   3   623                        45.9     
   3   624                        45.9     
   3   625                        46.0     
   3   626                        46.1     
   3   627                        46.2     
   3   628                        46.2     
   3   629                        46.3     
   3   630                        46.4     
   3   631                        46.5     
   3   632                        46.5     
   3   633                        46.6     
   3   634                        46.7     
   3   635                        46.7     
   3   636                        46.8     
   3   637                        46.9     
   3   638                        47.0     
   3   639                        47.0     
   3   640                        47.1     
   3   641                        47.2     
   3   642                        47.3     
   3   643                        47.3     
   3   644                        47.4     
   3   645                        47.5     
   3   646                        47.6     
   3   647                        47.6     
   3   648                        47.7     
   3   649                        47.8     
   3   650                        47.9     
   3   651                        47.9     
   3   652                        48.0     
   3   653                        48.1     
   3   654                        48.2     
   3   655                        48.2     
   3   656                        48.3     
   3   657                        48.4     
   3   658                        48.4     
   3   659                        48.5     
   3   660                        48.6     
   3   661                        48.7     
   3   662                        48.7     
   3   663                        48.8     
   3   664                        48.9     
   3   665                        49.0     
   3   666                        49.0     
   3   667                        49.1     
   3   668                        49.2     
   3   669                        49.3     
   3   670                        49.3     
   3   671                        49.4     
   3   672                        49.5     
   3   673                        49.6     
   3   674                        49.6     
   3   675                        49.7     
   3   676                        49.8     
   3   677                        49.8     
   3   678                        49.9     
   3   679                        50.0     
   3   680                        50.1     
   3   681                        50.1     
   3   682                        50.2     
   3   683                        50.3     
   3   684                        50.4     
   3   685                        50.4     
   3   686                        50.5     
   3   687                        50.6     
   3   688                        50.7     
   3   689                        50.7     
   3   690                        50.8     
   3   691                        50.9     
   3   692                        51.0     
   3   693                        51.0     
   3   694                        51.1     
   3   695                        51.2     
   3   696                        51.2     
   3   697                        51.3     
   3   698                        51.4     
   3   699                        51.5     
   3   700                        51.5     
   3   701                        51.9     
   3   702                        52.3     
   3   703                        52.7     
   3   704                        53.0     
   3   705                        53.4     
   3   706                        53.8     
   3   707                        54.2     
   3   708                        54.5     
   3   709                        54.9     
   3   710                        55.3     
   3   711                        55.7     
   3   712                        56.0     
   3   713                        56.4     
   3   714                        56.8     
   3   715                        57.2     
   3   716                        57.5     
   3   717                        57.9     
   3   718                        58.3     
   3   719                        58.6     
   3   720                        59.0     
   3   721                        59.4     
   3   722                        59.8     
   3   723                        60.1     
   3   724                        60.5     
   3   725                        60.9     
   3   726                        61.3     
   3   727                        61.6     
   3   728                        62.0     
   3   729                        62.4     
   3   730                        62.8     
   3   731                        63.1     
   3   732                        63.5     
   3   733                        63.9     
   3   734                        64.3     
   3   735                        64.6     
   3   736                        65.0     
   3   737                        65.4     
   3   738                        65.8     
   3   739                        66.1     
   3   740                        66.5     
   3   741                        66.9     
   3   742                        67.3     
   3   743                        67.6     
   3   744                        68.0     
   3   745                        68.4     
   3   746                        68.7     
   3   747                        69.1     
   3   748                        69.5     
   3   749                        69.9     
   3   750                        70.2     
   3   751                        70.6     
   3   752                        71.0     
   3   753                        71.4     
   3   754                        71.7     
   3   755                        72.1     
   3   756                        72.5     
   3   757                        72.9     
   3   758                        73.2     
   3   759                        73.6     
   3   760                        74.0     
   3   761                        74.4     
   3   762                        74.7     
   3   763                        75.1     
   3   764                        75.5     
   3   765                        75.9     
   3   766                        76.2     
   3   767                        76.6     
   3   768                        77.0     
   3   769                        77.3     
   3   770                        77.7     
   3   771                        78.1     
   3   772                        78.5     
   3   773                        78.8     
   3   774                        79.2     
   3   775                        79.6     
   3   776                        80.0     
   3   777                        80.3     
   3   778                        80.7     
   3   779                        81.1     
   3   780                        81.5     
   3   781                        81.8     
   3   782                        82.2     
   3   783                        82.6     
   3   784                        83.0     
   3   785                        83.3     
   3   786                        83.7     
   3   787                        84.1     
   3   788                        84.5     
   3   789                        84.8     
   3   790                        85.2     
   3   791                        85.6     
   3   792                        86.0     
   3   793                        86.3     
   3   794                        86.7     
   3   795                        87.1     
   3   796                        87.4     
   3   797                        87.8     
   3   798                        88.2     
   3   799                        88.6     
   3   800                        88.9     
   3   801                        89.3     
   3   802                        89.7     
   3   803                        90.1     
   3   804                        90.4     
   3   805                        90.8     
   3   806                        91.2     
   3   807                        91.6     
   3   808                        91.9     
   3   809                        92.3     
   3   810                        92.7     
   3   811                        93.1     
   3   812                        93.4     
   3   813                        93.8     
   3   814                        94.2     
   3   815                        94.6     
   3   816                        94.9     
   3   817                        95.3     
   3   818                        95.7     
   3   819                        96.0     
   3   820                        96.4     
   3   821                        96.8     
   3   822                        97.2     
   3   823                        97.5     
   3   824                        97.9     
   3   825                        98.3     
   3   826                        98.7     
   3   827                        99.0     
   3   828                        99.4     
   3   829                        99.8     
   3   830                        100.     
   3   831                        101.     
   3   832                        101.     
   3   833                        101.     
   3   834                        102.     
   3   835                        102.     
   3   836                        102.     
   3   837                        103.     
   3   838                        103.     
   3   839                        104.     
   3   840                        104.     
   3   841                        104.     
   3   842                        105.     
   3   843                        105.     
   3   844                        105.     
   3   845                        106.     
   3   846                        106.     
   3   847                        107.     
   3   848                        107.     
   3   849                        107.     
   3   850                        108.     
   3   851                        108.     
   3   852                        108.     
   3   853                        109.     
   3   854                        109.     
   3   855                        110.     
   3   856                        110.     
   3   857                        110.     
   3   858                        111.     
   3   859                        111.     
   3   860                        111.     
   3   861                        112.     
   3   862                        112.     
   3   863                        113.     
   3   864                        113.     
   3   865                        113.     
   3   866                        114.     
   3   867                        114.     
   3   868                        114.     
   3   869                        115.     
   3   870                        115.     
   3   871                        115.     
   3   872                        116.     
   3   873                        116.     
   3   874                        117.     
   3   875                        117.     
   3   876                        117.     
   3   877                        118.     
   3   878                        118.     
   3   879                        118.     
   3   880                        119.     
   3   881                        119.     
   3   882                        120.     
   3   883                        120.     
   3   884                        120.     
   3   885                        121.     
   3   886                        121.     
   3   887                        121.     
   3   888                        122.     
   3   889                        122.     
   3   890                        123.     
   3   891                        123.     
   3   892                        123.     
   3   893                        124.     
   3   894                        124.     
   3   895                        124.     
   3   896                        125.     
   3   897                        125.     
   3   898                        126.     
   3   899                        126.     
   3   900                        126.     
   3   901                        127.     
   3   902                        127.     
   3   903                        127.     
   3   904                        128.     
   3   905                        128.     
   3   906                        129.     
   3   907                        129.     
   3   908                        129.     
   3   909                        130.     
   3   910                        130.     
   3   911                        130.     
   3   912                        131.     
   3   913                        131.     
   3   914                        132.     
   3   915                        132.     
   3   916                        132.     
   3   917                        133.     
   3   918                        133.     
   3   919                        133.     
   3   920                        134.     
   3   921                        134.     
   3   922                        135.     
   3   923                        135.     
   3   924                        135.     
   3   925                        136.     
   3   926                        136.     
   3   927                        136.     
   3   928                        137.     
   3   929                        137.     
   3   930                        138.     
   3   931                        138.     
   3   932                        138.     
   3   933                        139.     
   3   934                        139.     
   3   935                        139.     
   3   936                        140.     
   3   937                        140.     
   3   938                        141.     
   3   939                        141.     
   3   940                        141.     
   3   941                        142.     
   3   942                        142.     
   3   943                        142.     
   3   944                        143.     
   3   945                        143.     
   3   946                        144.     
   3   947                        144.     
   3   948                        144.     
   3   949                        145.     
   3   950                        145.     
   3   951                        145.     
   3   952                        146.     
   3   953                        146.     
   3   954                        147.     
   3   955                        147.     
   3   956                        147.     
   3   957                        148.     
   3   958                        148.     
   3   959                        148.     
   3   960                        149.     
   3   961                        149.     
   3   962                        150.     
   3   963                        150.     
   3   964                        150.     
   3   965                        151.     
   3   966                        151.     
   3   967                        151.     
   3   968                        152.     
   3   969                        152.     
   3   970                        153.     
   3   971                        153.     
   3   972                        153.     
   3   973                        154.     
   3   974                        154.     
   3   975                        154.     
   3   976                        155.     
   3   977                        155.     
   3   978                        156.     
   3   979                        156.     
   3   980                        156.     
   3   981                        157.     
   3   982                        157.     
   3   983                        157.     
   3   984                        158.     
   3   985                        158.     
   3   986                        159.     
   3   987                        159.     
   3   988                        159.     
   3   989                        160.     
   3   990                        160.     
   3   991                        160.     
   3   992                        161.     
   3   993                        161.     
   3   994                        161.     
   3   995                        162.     
   3   996                        162.     
   3   997                        163.     
   3   998                        163.     
   3   999                        163.     
   3  1000                        164.     
   3  1001                        164.     
   3  1002                        164.     
   3  1003                        165.     
   3  1004                        165.     
   3  1005                        166.     
   3  1006                        166.     
   3  1007                        166.     
   3  1008                        167.     
   3  1009                        167.     
   3  1010                        167.     
   3  1011                        168.     
   3  1012                        168.     
   3  1013                        169.     
   3  1014                        169.     
   3  1015                        169.     
   3  1016                        170.     
   3  1017                        170.     
   3  1018                        170.     
   3  1019                        171.     
   3  1020                        171.     
   3  1021                        172.     
   3  1022                        172.     
   3  1023                        172.     
   3  1024                        173.     
   3  1025                        173.     
   3  1026                        173.     
   3  1027                        174.     
   3  1028                        174.     
   3  1029                        175.     
   3  1030                        175.     
   3  1031                        175.     
   3  1032                        176.     
   3  1033                        176.     
   3  1034                        176.     
   3  1035                        177.     
   3  1036                        177.     
   3  1037                        178.     
   3  1038                        178.     
   3  1039                        178.     
   3  1040                        179.     
   3  1041                        179.     
   3  1042                        179.     
   3  1043                        180.     
   3  1044                        180.     
   3  1045                        181.     
   3  1046                        181.     
   3  1047                        181.     
   3  1048                        182.     
   3  1049                        182.     
   3  1050                        182.     
   3  1051                        183.     
   3  1052                        183.     
   3  1053                        184.     
   3  1054                        184.     
   3  1055                        184.     
   3  1056                        185.     
   3  1057                        185.     
   3  1058                        185.     
   3  1059                        186.     
   3  1060                        186.     
   3  1061                        187.     
   3  1062                        187.     
   3  1063                        187.     
   3  1064                        188.     
   3  1065                        188.     
   3  1066                        188.     
   3  1067                        189.     
   3  1068                        189.     
   3  1069                        190.     
   3  1070                        190.     
   3  1071                        190.     
   3  1072                        191.     
   3  1073                        191.     
   3  1074                        191.     
   3  1075                        192.     
   3  1076                        192.     
   3  1077                        193.     
   3  1078                        193.     
   3  1079                        193.     
   3  1080                        194.     
   3  1081                        194.     
   3  1082                        194.     
   3  1083                        195.     
   3  1084                        195.     
   3  1085                        196.     
   3  1086                        196.     
   3  1087                        196.     
   3  1088                        197.     
   3  1089                        197.     
   3  1090                        197.     
   3  1091                        198.     
   3  1092                        198.     
   3  1093                        199.     
   3  1094                        199.     
   3  1095                        199.     
   3  1096                        200.     
   3  1097                        200.     
   3  1098                        200.     
   3  1099                        201.     
   3  1100                        201.     
   3  1101                        202.     
   3  1102                        202.     
   3  1103                        202.     
   3  1104                        203.     
   3  1105                        203.     
   3  1106                        203.     
   3  1107                        204.     
   3  1108                        204.     
   3  1109                        205.     
   3  1110                        205.     
   3  1111                        205.     
   3  1112                        206.     
   3  1113                        206.     
   3  1114                        206.     
   3  1115                        207.     
   3  1116                        207.     
   3  1117                        208.     
   3  1118                        208.     
   3  1119                        208.     
   3  1120                        209.     
   3  1121                        209.     
   3  1122                        209.     
   3  1123                        210.     
   3  1124                        210.     
   3  1125                        210.     
   3  1126                        211.     
   3  1127                        211.     
   3  1128                        212.     
   3  1129                        212.     
   3  1130                        212.     
   3  1131                        213.     
   3  1132                        213.     
   3  1133                        213.     
   3  1134                        214.     
   3  1135                        214.     
   3  1136                        215.     
   3  1137                        215.     
   3  1138                        215.     
   3  1139                        216.     
   3  1140                        216.     
   3  1141                        216.     
   3  1142                        217.     
   3  1143                        217.     
   3  1144                        218.     
   3  1145                        218.     
   3  1146                        218.     
   3  1147                        219.     
   3  1148                        219.     
   3  1149                        219.     
   3  1150                        220.     
   3  1151                        220.     
   3  1152                        221.     
   3  1153                        221.     
   3  1154                        221.     
   3  1155                        222.     
   3  1156                        222.     
   3  1157                        222.     
   3  1158                        223.     
   3  1159                        223.     
   3  1160                        224.     
   3  1161                        224.     
   3  1162                        224.     
   3  1163                        225.     
   3  1164                        225.     
   3  1165                        225.     
   3  1166                        226.     
   3  1167                        226.     
   3  1168                        227.     
   3  1169                        227.     
   3  1170                        227.     
   3  1171                        228.     
   3  1172                        228.     
   3  1173                        228.     
   3  1174                        229.     
   3  1175                        229.     
   3  1176                        230.     
   3  1177                        230.     
   3  1178                        230.     
   3  1179                        231.     
   3  1180                        231.     
   3  1181                        231.     
   3  1182                        232.     
   3  1183                        232.     
   3  1184                        233.     
   3  1185                        233.     
   3  1186                        233.     
   3  1187                        234.     
   3  1188                        234.     
   3  1189                        234.     
   3  1190                        235.     
   3  1191                        235.     
   3  1192                        236.     
   3  1193                        236.     
   3  1194                        236.     
   3  1195                        237.     
   3  1196                        237.     
   3  1197                        237.     
   3  1198                        238.     
   3  1199                        238.     
   3  1200                        239.     
   3  1201                        239.     
   3  1202                        239.     
   3  1203                        240.     
   3  1204                        240.     
   3  1205                        240.     
   3  1206                        241.     
   3  1207                        241.     
   3  1208                        242.     
   3  1209                        242.     
   3  1210                        242.     
   3  1211                        243.     
   3  1212                        243.     
   3  1213                        243.     
   3  1214                        244.     
   3  1215                        244.     
   3  1216                        245.     
   3  1217                        245.     
   3  1218                        245.     
   3  1219                        246.     
   3  1220                        246.     
   3  1221                        246.     
   3  1222                        247.     
   3  1223                        247.     
   3  1224                        248.     
   3  1225                        248.     
   3  1226                        248.     
   3  1227                        249.     
   3  1228                        249.     
   3  1229                        249.     
   3  1230                        250.     
   3  1231                        250.     
   3  1232                        251.     
   3  1233                        251.     
   3  1234                        251.     
   3  1235                        252.     
   3  1236                        252.     
   3  1237                        252.     
   3  1238                        253.     
   3  1239                        253.     
   3  1240                        254.     
   3  1241                        254.     
   3  1242                        254.     
   3  1243                        255.     
   3  1244                        255.     
   3  1245                        255.     
   3  1246                        256.     
   3  1247                        256.     
   3  1248                        256.     
   3  1249                        257.     
   3  1250                        257.     
   3  1251                        258.     
   3  1252                        258.     
   3  1253                        258.     
   3  1254                        259.     
   3  1255                        259.     
   3  1256                        259.     
   3  1257                        260.     
   3  1258                        260.     
   3  1259                        261.     
   3  1260                        261.     
   3  1261                        261.     
   3  1262                        262.     
   3  1263                        262.     
   3  1264                        262.     
   3  1265                        263.     
   3  1266                        263.     
   3  1267                        264.     
   3  1268                        264.     
   3  1269                        264.     
   3  1270                        265.     
   3  1271                        265.     
   3  1272                        265.     
   3  1273                        266.     
   3  1274                        266.     
   3  1275                        267.     
   3  1276                        267.     
   3  1277                        267.     
   3  1278                        268.     
   3  1279                        268.     
   3  1280                        268.     
   3  1281                        269.     
   3  1282                        269.     
   3  1283                        270.     
   3  1284                        270.     
   3  1285                        270.     
   3  1286                        271.     
   3  1287                        271.     
   3  1288                        271.     
   3  1289                        272.     
   3  1290                        272.     
   3  1291                        273.     
   3  1292                        273.     
   3  1293                        273.     
   3  1294                        274.     
   3  1295                        274.     
   3  1296                        274.     
   3  1297                        275.     
   3  1298                        275.     
   3  1299                        276.     
   3  1300                        276.     
   3  1301                        276.     
   3  1302                        277.     
   3  1303                        277.     
   3  1304                        277.     
   3  1305                        278.     
   3  1306                        278.     
   3  1307                        279.     
   3  1308                        279.     
   3  1309                        279.     
   3  1310                        280.     
   3  1311                        280.     
   3  1312                        280.     
   3  1313                        281.     
   3  1314                        281.     
   3  1315                        282.     
   3  1316                        282.     
   3  1317                        282.     
   3  1318                        283.     
   3  1319                        283.     
   3  1320                        283.     
   3  1321                        284.     
   3  1322                        284.     
   3  1323                        285.     
   3  1324                        285.     
   3  1325                        285.     
   3  1326                        286.     
   3  1327                        286.     
   3  1328                        286.     
   3  1329                        287.     
   3  1330                        287.     
   3  1331                        288.     
   3  1332                        288.     
   3  1333                        288.     
   3  1334                        289.     
   3  1335                        289.     
   3  1336                        289.     
   3  1337                        290.     
   3  1338                        290.     
   3  1339                        291.     
   3  1340                        291.     
   3  1341                        291.     
   3  1342                        292.     
   3  1343                        292.     
   3  1344                        292.     
   3  1345                        293.     
   3  1346                        293.     
   3  1347                        294.     
   3  1348                        294.     
   3  1349                        294.     
   3  1350                        295.     
   3  1351                        295.     
   3  1352                        295.     
   3  1353                        296.     
   3  1354                        296.     
   3  1355                        297.     
   3  1356                        297.     
   3  1357                        297.     
   3  1358                        298.     
   3  1359                        298.     
   3  1360                        298.     
   3  1361                        299.     
   3  1362                        299.     
   3  1363                        300.     
   3  1364                        300.     
   3  1365                        300.     
   3  1366                        301.     
   3  1367                        301.     
   3  1368                        301.     
   3  1369                        302.     
   3  1370                        302.     
   3  1371                        302.     
   3  1372                        303.     
   3  1373                        303.     
   3  1374                        304.     
   3  1375                        304.     
   3  1376                        304.     
   3  1377                        305.     
   3  1378                        305.     
   3  1379                        305.     
   3  1380                        306.     
   3  1381                        306.     
   3  1382                        307.     
   3  1383                        307.     
   3  1384                        307.     
   3  1385                        308.     
   3  1386                        308.     
   3  1387                        308.     
   3  1388                        309.     
   3  1389                        309.     
   3  1390                        310.     
   3  1391                        310.     
   3  1392                        310.     
   3  1393                        311.     
   3  1394                        311.     
   3  1395                        311.     
   3  1396                        312.     
   3  1397                        312.     
   3  1398                        313.     
   3  1399                        313.     
   3  1400                        313.     
   3  1401                        313.     
   3  1402                        313.     
   3  1403                        313.     
   3  1404                        313.     
   3  1405                        313.     
   3  1406                        313.     
   3  1407                        313.     
   3  1408                        313.     
   3  1409                        314.     
   3  1410                        314.     
   3  1411                        314.     
   3  1412                        314.     
   3  1413                        314.     
   3  1414                        314.     
   3  1415                        314.     
   3  1416                        314.     
   3  1417                        314.     
   3  1418                        314.     
   3  1419                        314.     
   3  1420                        314.     
   3  1421                        314.     
   3  1422                        314.     
   3  1423                        314.     
   3  1424                        314.     
   3  1425                        314.     
   3  1426                        314.     
   3  1427                        314.     
   3  1428                        315.     
   3  1429                        315.     
   3  1430                        315.     
   3  1431                        315.     
   3  1432                        315.     
   3  1433                        315.     
   3  1434                        315.     
   3  1435                        315.     
   3  1436                        315.     
   3  1437                        315.     
   3  1438                        315.     
   3  1439                        315.     
   3  1440                        315.     
   3  1441                        315.     
   3  1442                        315.     
   3  1443                        315.     
   3  1444                        315.     
   3  1445                        315.     
   3  1446                        315.     
   3  1447                        316.     
   3  1448                        316.     
   3  1449                        316.     
   3  1450                        316.     
   3  1451                        316.     
   3  1452                        316.     
   3  1453                        316.     
   3  1454                        316.     
   3  1455                        316.     
   3  1456                        316.     
   3  1457                        316.     
   3  1458                        316.     
   3  1459                        316.     
   3  1460                        316.     
   3  1461                        316.     
   3  1462                        316.     
   3  1463                        316.     
   3  1464                        316.     
   3  1465                        316.     
   3  1466                        317.     
   3  1467                        317.     
   3  1468                        317.     
   3  1469                        317.     
   3  1470                        317.     
   3  1471                        317.     
   3  1472                        317.     
   3  1473                        317.     
   3  1474                        317.     
   3  1475                        317.     
   3  1476                        317.     
   3  1477                        317.     
   3  1478                        317.     
   3  1479                        317.     
   3  1480                        317.     
   3  1481                        317.     
   3  1482                        317.     
   3  1483                        317.     
   3  1484                        317.     
   3  1485                        318.     
   3  1486                        318.     
   3  1487                        318.     
   3  1488                        318.     
   3  1489                        318.     
   3  1490                        318.     
   3  1491                        318.     
   3  1492                        318.     
   3  1493                        318.     
   3  1494                        318.     
   3  1495                        318.     
   3  1496                        318.     
   3  1497                        318.     
   3  1498                        318.     
   3  1499                        318.     
   3  1500                        318.     
   3  1501                        318.     
   3  1502                        318.     
   3  1503                        318.     
   3  1504                        319.     
   3  1505                        319.     
   3  1506                        319.     
   3  1507                        319.     
   3  1508                        319.     
   3  1509                        319.     
   3  1510                        319.     
   3  1511                        319.     
   3  1512                        319.     
   3  1513                        319.     
   3  1514                        319.     
   3  1515                        319.     
   3  1516                        319.     
   3  1517                        319.     
   3  1518                        319.     
   3  1519                        319.     
   3  1520                        319.     
   3  1521                        319.     
   3  1522                        319.     
   3  1523                        320.     
   3  1524                        320.     
   3  1525                        320.     
   3  1526                        320.     
   3  1527                        320.     
   3  1528                        320.     
   3  1529                        320.     
   3  1530                        320.     
   3  1531                        320.     
   3  1532                        320.     
   3  1533                        320.     
   3  1534                        320.     
   3  1535                        320.     
   3  1536                        320.     
   3  1537                        320.     
   3  1538                        320.     
   3  1539                        320.     
   3  1540                        320.     
   3  1541                        320.     
   3  1542                        321.     
   3  1543                        321.     
   3  1544                        321.     
   3  1545                        321.     
   3  1546                        321.     
   3  1547                        321.     
   3  1548                        321.     
   3  1549                        321.     
   3  1550                        321.     
   3  1551                        321.     
   3  1552                        321.     
   3  1553                        321.     
   3  1554                        321.     
   3  1555                        321.     
   3  1556                        321.     
   3  1557                        321.     
   3  1558                        321.     
   3  1559                        321.     
   3  1560                        322.     
   3  1561                        322.     
   3  1562                        322.     
   3  1563                        322.     
   3  1564                        322.     
   3  1565                        322.     
   3  1566                        322.     
   3  1567                        322.     
   3  1568                        322.     
   3  1569                        322.     
   3  1570                        322.     
   3  1571                        322.     
   3  1572                        322.     
   3  1573                        322.     
   3  1574                        322.     
   3  1575                        322.     
   3  1576                        322.     
   3  1577                        322.     
   3  1578                        322.     
   3  1579                        323.     
   3  1580                        323.     
   3  1581                        323.     
   3  1582                        323.     
   3  1583                        323.     
   3  1584                        323.     
   3  1585                        323.     
   3  1586                        323.     
   3  1587                        323.     
   3  1588                        323.     
   3  1589                        323.     
   3  1590                        323.     
   3  1591                        323.     
   3  1592                        323.     
   3  1593                        323.     
   3  1594                        323.     
   3  1595                        323.     
   3  1596                        323.     
   3  1597                        323.     
   3  1598                        324.     
   3  1599                        324.     
   3  1600                        324.     
   3  1601                        324.     
   3  1602                        324.     
   3  1603                        324.     
   3  1604                        324.     
   3  1605                        324.     
   3  1606                        324.     
   3  1607                        324.     
   3  1608                        324.     
   3  1609                        324.     
   3  1610                        324.     
   3  1611                        324.     
   3  1612                        324.     
   3  1613                        324.     
   3  1614                        324.     
   3  1615                        324.     
   3  1616                        324.     
   3  1617                        325.     
   3  1618                        325.     
   3  1619                        325.     
   3  1620                        325.     
   3  1621                        325.     
   3  1622                        325.     
   3  1623                        325.     
   3  1624                        325.     
   3  1625                        325.     
   3  1626                        325.     
   3  1627                        325.     
   3  1628                        325.     
   3  1629                        325.     
   3  1630                        325.     
   3  1631                        325.     
   3  1632                        325.     
   3  1633                        325.     
   3  1634                        325.     
   3  1635                        325.     
   3  1636                        326.     
   3  1637                        326.     
   3  1638                        326.     
   3  1639                        326.     
   3  1640                        326.     
   3  1641                        326.     
   3  1642                        326.     
   3  1643                        326.     
   3  1644                        326.     
   3  1645                        326.     
   3  1646                        326.     
   3  1647                        326.     
   3  1648                        326.     
   3  1649                        326.     
   3  1650                        326.     
   3  1651                        326.     
   3  1652                        326.     
   3  1653                        326.     
   3  1654                        326.     
   3  1655                        327.     
   3  1656                        327.     
   3  1657                        327.     
   3  1658                        327.     
   3  1659                        327.     
   3  1660                        327.     
   3  1661                        327.     
   3  1662                        327.     
   3  1663                        327.     
   3  1664                        327.     
   3  1665                        327.     
   3  1666                        327.     
   3  1667                        327.     
   3  1668                        327.     
   3  1669                        327.     
   3  1670                        327.     
   3  1671                        327.     
   3  1672                        327.     
   3  1673                        327.     
   3  1674                        328.     
   3  1675                        328.     
   3  1676                        328.     
   3  1677                        328.     
   3  1678                        328.     
   3  1679                        328.     
   3  1680                        328.     
   3  1681                        328.     
   3  1682                        328.     
   3  1683                        328.     
   3  1684                        328.     
   3  1685                        328.     
   3  1686                        328.     
   3  1687                        328.     
   3  1688                        328.     
   3  1689                        328.     
   3  1690                        328.     
   3  1691                        328.     
   3  1692                        328.     
   3  1693                        329.     
   3  1694                        329.     
   3  1695                        329.     
   3  1696                        329.     
   3  1697                        329.     
   3  1698                        329.     
   3  1699                        329.     
   3  1700                        329.     
   3  1701                        329.     
   3  1702                        329.     
   3  1703                        329.     
   3  1704                        329.     
   3  1705                        329.     
   3  1706                        329.     
   3  1707                        329.     
   3  1708                        329.     
   3  1709                        329.     
   3  1710                        329.     
   3  1711                        329.     
   3  1712                        330.     
   3  1713                        330.     
   3  1714                        330.     
   3  1715                        330.     
   3  1716                        330.     
   3  1717                        330.     
   3  1718                        330.     
   3  1719                        330.     
   3  1720                        330.     
   3  1721                        330.     
   3  1722                        330.     
   3  1723                        330.     
   3  1724                        330.     
   3  1725                        330.     
   3  1726                        330.     
   3  1727                        330.     
   3  1728                        330.     
   3  1729                        330.     
   3  1730                        331.     
   3  1731                        331.     
   3  1732                        331.     
   3  1733                        331.     
   3  1734                        331.     
   3  1735                        331.     
   3  1736                        331.     
   3  1737                        331.     
   3  1738                        331.     
   3  1739                        331.     
   3  1740                        331.     
   3  1741                        331.     
   3  1742                        331.     
   3  1743                        331.     
   3  1744                        331.     
   3  1745                        331.     
   3  1746                        331.     
   3  1747                        331.     
   3  1748                        331.     
   3  1749                        332.     
   3  1750                        332.     
   3  1751                        332.     
   3  1752                        332.     
   3  1753                        332.     
   3  1754                        332.     
   3  1755                        332.     
   3  1756                        332.     
   3  1757                        332.     
   3  1758                        332.     
   3  1759                        332.     
   3  1760                        332.     
   3  1761                        332.     
   3  1762                        332.     
   3  1763                        332.     
   3  1764                        332.     
   3  1765                        332.     
   3  1766                        332.     
   3  1767                        332.     
   3  1768                        333.     
   3  1769                        333.     
   3  1770                        333.     
   3  1771                        333.     
   3  1772                        333.     
   3  1773                        333.     
   3  1774                        333.     
   3  1775                        333.     
   3  1776                        333.     
   3  1777                        333.     
   3  1778                        333.     
   3  1779                        333.     
   3  1780                        333.     
   3  1781                        333.     
   3  1782                        333.     
   3  1783                        333.     
   3  1784                        333.     
   3  1785                        333.     
   3  1786                        333.     
   3  1787                        334.     
   3  1788                        334.     
   3  1789                        334.     
   3  1790                        334.     
   3  1791                        334.     
   3  1792                        334.     
   3  1793                        334.     
   3  1794                        334.     
   3  1795                        334.     
   3  1796                        334.     
   3  1797                        334.     
   3  1798                        334.     
   3  1799                        334.     
   3  1800                        334.     
   3  1801                        334.     
   3  1802                        334.     
   3  1803                        334.     
   3  1804                        334.     
   3  1805                        334.     
   3  1806                        335.     
   3  1807                        335.     
   3  1808                        335.     
   3  1809                        335.     
   3  1810                        335.     
   3  1811                        335.     
   3  1812                        335.     
   3  1813                        335.     
   3  1814                        335.     
   3  1815                        335.     
   3  1816                        335.     
   3  1817                        335.     
   3  1818                        335.     
   3  1819                        335.     
   3  1820                        335.     
   3  1821                        335.     
   3  1822                        335.     
   3  1823                        335.     
   3  1824                        335.     
   3  1825                        336.     
   3  1826                        336.     
   3  1827                        336.     
   3  1828                        336.     
   3  1829                        336.     
   3  1830                        336.     
   3  1831                        336.     
   3  1832                        336.     
   3  1833                        336.     
   3  1834                        336.     
   3  1835                        336.     
   3  1836                        336.     
   3  1837                        336.     
   3  1838                        336.     
   3  1839                        336.     
   3  1840                        336.     
   3  1841                        336.     
   3  1842                        336.     
   3  1843                        336.     
   3  1844                        337.     
   3  1845                        337.     
   3  1846                        337.     
   3  1847                        337.     
   3  1848                        337.     
   3  1849                        337.     
   3  1850                        337.     
   3  1851                        337.     
   3  1852                        337.     
   3  1853                        337.     
   3  1854                        337.     
   3  1855                        337.     
   3  1856                        337.     
   3  1857                        337.     
   3  1858                        337.     
   3  1859                        337.     
   3  1860                        337.     
   3  1861                        337.     
   3  1862                        337.     
   3  1863                        338.     
   3  1864                        338.     
   3  1865                        338.     
   3  1866                        338.     
   3  1867                        338.     
   3  1868                        338.     
   3  1869                        338.     
   3  1870                        338.     
   3  1871                        338.     
   3  1872                        338.     
   3  1873                        338.     
   3  1874                        338.     
   3  1875                        338.     
   3  1876                        338.     
   3  1877                        338.     
   3  1878                        338.     
   3  1879                        338.     
   3  1880                        338.     
   3  1881                        339.     
   3  1882                        339.     
   3  1883                        339.     
   3  1884                        339.     
   3  1885                        339.     
   3  1886                        339.     
   3  1887                        339.     
   3  1888                        339.     
   3  1889                        339.     
   3  1890                        339.     
   3  1891                        339.     
   3  1892                        339.     
   3  1893                        339.     
   3  1894                        339.     
   3  1895                        339.     
   3  1896                        339.     
   3  1897                        339.     
   3  1898                        339.     
   3  1899                        339.     
   3  1900                        340.     
   3  1901                        340.     
   3  1902                        340.     
   3  1903                        340.     
   3  1904                        340.     
   3  1905                        340.     
   3  1906                        340.     
   3  1907                        340.     
   3  1908                        340.     
   3  1909                        340.     
   3  1910                        340.     
   3  1911                        340.     
   3  1912                        340.     
   3  1913                        340.     
   3  1914                        340.     
   3  1915                        340.     
   3  1916                        340.     
   3  1917                        340.     
   3  1918                        340.     
   3  1919                        341.     
   3  1920                        341.     
   3  1921                        341.     
   3  1922                        341.     
   3  1923                        341.     
   3  1924                        341.     
   3  1925                        341.     
   3  1926                        341.     
   3  1927                        341.     
   3  1928                        341.     
   3  1929                        341.     
   3  1930                        341.     
   3  1931                        341.     
   3  1932                        341.     
   3  1933                        341.     
   3  1934                        341.     
   3  1935                        341.     
   3  1936                        341.     
   3  1937                        341.     
   3  1938                        342.     
   3  1939                        342.     
   3  1940                        342.     
   3  1941                        342.     
   3  1942                        342.     
   3  1943                        342.     
   3  1944                        342.     
   3  1945                        342.     
   3  1946                        342.     
   3  1947                        342.     
   3  1948                        342.     
   3  1949                        342.     
   3  1950                        342.     
   3  1951                        342.     
   3  1952                        342.     
   3  1953                        342.     
   3  1954                        342.     
   3  1955                        342.     
   3  1956                        342.     
   3  1957                        343.     
   3  1958                        343.     
   3  1959                        343.     
   3  1960                        343.     
   3  1961                        343.     
   3  1962                        343.     
   3  1963                        343.     
   3  1964                        343.     
   3  1965                        343.     
   3  1966                        343.     
   3  1967                        343.     
   3  1968                        343.     
   3  1969                        343.     
   3  1970                        343.     
   3  1971                        343.     
   3  1972                        343.     
   3  1973                        343.     
   3  1974                        343.     
   3  1975                        343.     
   3  1976                        344.     
   3  1977                        344.     
   3  1978                        344.     
   3  1979                        344.     
   3  1980                        344.     
   3  1981                        344.     
   3  1982                        344.     
   3  1983                        344.     
   3  1984                        344.     
   3  1985                        344.     
   3  1986                        344.     
   3  1987                        344.     
   3  1988                        344.     
   3  1989                        344.     
   3  1990                        344.     
   3  1991                        344.     
   3  1992                        344.     
   3  1993                        344.     
   3  1994                        344.     
   3  1995                        345.     
   3  1996                        345.     
   3  1997                        345.     
   3  1998                        345.     
   3  1999                        345.     
   3  2000                        345.     
   3  2001                        345.     
   3  2002                        345.     
   3  2003                        345.     
   3  2004                        345.     
   3  2005                        345.     
   3  2006                        345.     
   3  2007                        345.     
   3  2008                        345.     
   3  2009                        345.     
   3  2010                        345.     
   3  2011                        345.     
   3  2012                        345.     
   3  2013                        345.     
   3  2014                        346.     
   3  2015                        346.     
   3  2016                        346.     
   3  2017                        346.     
   3  2018                        346.     
   3  2019                        346.     
   3  2020                        346.     
   3  2021                        346.     
   3  2022                        346.     
   3  2023                        346.     
   3  2024                        346.     
   3  2025                        346.     
   3  2026                        346.     
   3  2027                        346.     
   3  2028                        346.     
   3  2029                        346.     
   3  2030                        346.     
   3  2031                        346.     
   3  2032                        347.     
   3  2033                        347.     
   3  2034                        347.     
   3  2035                        347.     
   3  2036                        347.     
   3  2037                        347.     
   3  2038                        347.     
   3  2039                        347.     
   3  2040                        347.     
   3  2041                        347.     
   3  2042                        347.     
   3  2043                        347.     
   3  2044                        347.     
   3  2045                        347.     
   3  2046                        347.     
   3  2047                        347.     
   3  2048                        347.     
   3  2049                        347.     
   3  2050                        347.     
   3  2051                        348.     
   3  2052                        348.     
   3  2053                        348.     
   3  2054                        348.     
   3  2055                        348.     
   3  2056                        348.     
   3  2057                        348.     
   3  2058                        348.     
   3  2059                        348.     
   3  2060                        348.     
   3  2061                        348.     
   3  2062                        348.     
   3  2063                        348.     
   3  2064                        348.     
   3  2065                        348.     
   3  2066                        348.     
   3  2067                        348.     
   3  2068                        348.     
   3  2069                        348.     
   3  2070                        349.     
   3  2071                        349.     
   3  2072                        349.     
   3  2073                        349.     
   3  2074                        349.     
   3  2075                        349.     
   3  2076                        349.     
   3  2077                        349.     
   3  2078                        349.     
   3  2079                        349.     
   3  2080                        349.     
   3  2081                        349.     
   3  2082                        349.     
   3  2083                        349.     
   3  2084                        349.     
   3  2085                        349.     
   3  2086                        349.     
   3  2087                        349.     
   3  2088                        349.     
   3  2089                        350.     
   3  2090                        350.     
   3  2091                        350.     
   3  2092                        350.     
   3  2093                        350.     
   3  2094                        350.     
   3  2095                        350.     
   3  2096                        350.     
   3  2097                        350.     
   3  2098                        350.     
                          
 THE ANALYSIS HAS COMPLETED SUCCESSFULLY
