*Heading
** Job name: Job-1 Model name: Model-1
** Generated by: Abaqus/CAE 6.14-1
*Preprint, echo=NO, model=NO, history=NO, contact=NO
**
** PARTS
**
*Part, name=Part-1
*End Part
**  
**
** ASSEMBLY
**
*Assembly, name=Assembly
**  
*Instance, name=Part-1-1, part=Part-1
*Node
      1, -0.550000012,           0.
      2, -0.524999976,           0.
      3,         -0.5,           0.
      4, -0.474999994,           0.
      5, -0.449999988,           0.
      6, -0.425000012,           0.
      7, -0.400000006,           0.
      8,       -0.375,           0.
      9, -0.349999994,           0.
     10, -0.324999988,           0.
     11, -0.300000012,           0.
     12, -0.275000006,           0.
     13,        -0.25,           0.
     14, -0.224999994,           0.
     15, -0.200000003,           0.
     16, -0.174999997,           0.
     17, -0.150000006,           0.
     18,       -0.125,           0.
     19, -0.100000001,           0.
     20, -0.075000003,           0.
** ... 61 like lines cut
*Element, type=B22
 1,  1, 42,  2
 2,  2, 43,  3
 3,  3, 44,  4
 4,  4, 45,  5
 5,  5, 46,  6
 6,  6, 47,  7
 7,  7, 48,  8
 8,  8, 49,  9
 9,  9, 50, 10
10, 10, 51, 11
11, 11, 52, 12
12, 12, 53, 13
13, 13, 54, 14
14, 14, 55, 15
15, 15, 56, 16
16, 16, 57, 17
17, 17, 58, 18
18, 18, 59, 19
19, 19, 60, 20
20, 20, 61, 21
** ... 20 like lines cut
*Nset, nset=Set-1, generate
  1,  81,   1
*Elset, elset=Set-1, generate
  1,  40,   1
*Nset, nset=Set-2, generate
  1,  81,   1
*Elset, elset=Set-2, generate
  1,  40,   1
** Section: Section-1  Profile: Profile-2
*Beam Section, elset=Set-1, material=AL, temperature=GRADIENTS, section=BOX
0.05, 0.05, 0.005, 0.005, 0.005, 0.005
0.,0.,-1.
*End Instance
**  
*Nset, nset=Set-1, instance=Part-1-1
 1,
*Nset, nset=Set-3, instance=Part-1-1
 41,
*Nset, nset=Set-4, instance=Part-1-1
 41,
*End Assembly
** 
** MATERIALS
** 
*Material, name=AL
*Density
2711.,
*Elastic
 6.89e+10, 0.33
** 
** BOUNDARY CONDITIONS
** 
** Name: BC-1 Type: Displacement/Rotation
*Boundary
Set-1, 1, 1
Set-1, 2, 2
Set-1, 6, 6
** ----------------------------------------------------------------
** 
** STEP: Static Load
** 
*Step, name="Static Load", nlgeom=NO
*Static
1., 1., 1e-05, 1.
** 
** LOADS
** 
** Name: Load-1   Type: Concentrated force
*Cload
Set-3, 2, -1000.
** 
** OUTPUT REQUESTS
** 
*Restart, write, frequency=0
** 
** FIELD OUTPUT: F-Output-1
** 
*Output, field, variable=PRESELECT
** 
** HISTORY OUTPUT: H-Output-1
** 
*Output, history, variable=PRESELECT
*End Step
** ----------------------------------------------------------------
** 
** STEP: Freq Analysis
** 
*Step, name="Freq Analysis", nlgeom=NO, perturbation
*Frequency, eigensolver=Lanczos, acoustic coupling=off, normalization=displacement
6, , , , , 
** 
** OUTPUT REQUESTS
** 
*Restart, write, frequency=0
** 
** FIELD OUTPUT: F-Output-2
** 
*Output, field, variable=PRESELECT
*End Step
** ----------------------------------------------------------------
** 
** STEP: SS Dynamic
** 
*Step, name="SS Dynamic", nlgeom=NO, perturbation
*Steady State Dynamics, frequency scale=LINEAR
0., 350., 700, 1.
** 
** LOADS
** 
** Name: Load-2   Type: Concentrated force
*Cload, real
Set-4, 2, -1000.
** 
** OUTPUT REQUESTS
** 
** 
** FIELD OUTPUT: F-Output-3
** 
*Output, field, variable=PRESELECT
** 
** HISTORY OUTPUT: H-Output-2
** 
*Output, history, variable=PRESELECT
*End Step
