1

   Abaqus 6.14-1                                  Date 27-Jan-2016   Time 19:21:33
   For use by Supplied By SSQ under license from Dassault Systemes or its subsidiary.



                         The Abaqus Software is a product of:

                           Dassault Systemes Simulia Corp.
                                 Rising Sun Mills
                                 166 Valley Street
                           Providence, RI 02909-2499, USA
 


                   The Abaqus Software is available only under license
                   from Dassault Systemes or its subsidiary and may be
                   used or reproduced only in accordance with the terms
                   of such license.
 
                          On machine DESKTOP-5UE3P8V 
                          you are authorized to run
                          Abaqus/Standard until 31-Dec-2055

                          Your site id is:  


 
                    For assistance or any other information you may
                    obtain contact information for your local office
                    from the world wide web at:

                      http://www.3ds.com/products/simulia/locations/

 
                * * * * * * * * * * * * * * * * * * * * * * * * * * * * * * 
                *                                                         * 
                *                   *****************                     * 
                *                   *  N O T I C E  *                     * 
                *                   *****************                     * 
                *                                                         * 
                *                                                         * 
                *                    Abaqus 6.14-1                        * 
                *                                                         * 
                *          BUILD ID: 2014_06_04-18.11.02 134264           * 
                *                                                         * 
                *                                                         * 
                *  Please make sure you are using release 6.14 manuals    * 
                *  plus the notes accompanying this release.              * 
                *                                                         * 
                *                                                         * 
                *                                                         * 
                *                                                         * 
                * * * * * * * * * * * * * * * * * * * * * * * * * * * * * * 


 



     PROCESSING PART, INSTANCE, AND ASSEMBLY INFORMATION
   *******************************************************


     END PROCESSING PART, INSTANCE, AND ASSEMBLY INFORMATION
   ***********************************************************




     OPTIONS BEING PROCESSED
   ***************************


  *Heading
  *Node
  *Element, type=B22
  *Nset, nset=ASSEMBLY_PART-1-1_SET-1
  *Nset, nset=ASSEMBLY_PART-1-1_SET-2
  *Elset, elset=ASSEMBLY_PART-1-1_SET-1
  *Elset, elset=ASSEMBLY_PART-1-1_SET-2
  *Nset, nset=ASSEMBLY_SET-1
  *Nset, nset=ASSEMBLY_SET-3
  *Nset, nset=ASSEMBLY_SET-4
  *material, name=AL
  *density
  *elastic
  *boundary
  *beamsection, elset=ASSEMBLY_PART-1-1_SET-1, temperature=GRADIENTS, material=AL, section=BOX
  *output, field, variable=PRESELECT
  *output, history, variable=PRESELECT
  *output, field, variable=PRESELECT
  *output, field, variable=PRESELECT
  *output, history, variable=PRESELECT
  *output, field, variable=PRESELECT
  *output, history, variable=PRESELECT
  *output, field, variable=PRESELECT
  *output, field, variable=PRESELECT
  *output, history, variable=PRESELECT
  *output, field, variable=PRESELECT
  *output, history, variable=PRESELECT
  *output, field, variable=PRESELECT
  *output, field, variable=PRESELECT
  *output, history, variable=PRESELECT
  *Step, name="Static Load", nlgeom=NO
  *output, field, variable=PRESELECT
  *output, history, variable=PRESELECT
  *Step, name="Freq Analysis", nlgeom=NO, perturbation
  *frequency, eigensolver=LANCZOS, normalization=DISPLACEMENT, acousticcoupling=OFF
  *output, field, variable=PRESELECT
  *Step, name="SS Dynamic", nlgeom=NO, perturbation
  *steadystatedynamics, frequencyscale=LINEAR
  *output, field, variable=PRESELECT
  *output, history, variable=PRESELECT
  *Step, name="Static Load", nlgeom=NO
  *Step, name="Freq Analysis", nlgeom=NO, perturbation
  *Step, name="SS Dynamic", nlgeom=NO, perturbation
  *Step, name="Static Load", nlgeom=NO
  *static
  *output, field, variable=PRESELECT
  *output, history, variable=PRESELECT
  *endstep
  *Step, name="Freq Analysis", nlgeom=NO, perturbation
  *frequency, eigensolver=LANCZOS, normalization=DISPLACEMENT, acousticcoupling=OFF
  *frequency, eigensolver=LANCZOS, normalization=DISPLACEMENT, acousticcoupling=OFF
  *output, field, variable=PRESELECT
  *endstep
  *Step, name="SS Dynamic", nlgeom=NO, perturbation
  *steadystatedynamics, frequencyscale=LINEAR

 ***WARNING: THE MINIMUM FREQUENCY WAS INCREASED TO 1.50487E-08.
  *output, field, variable=PRESELECT
  *output, history, variable=PRESELECT
  *endstep
  *boundary
  *Step, name="Static Load", nlgeom=NO
  *static
  *cload
  *endstep
  *Step, name="Freq Analysis", nlgeom=NO, perturbation
  *frequency, eigensolver=LANCZOS, normalization=DISPLACEMENT, acousticcoupling=OFF
  *frequency, eigensolver=LANCZOS, normalization=DISPLACEMENT, acousticcoupling=OFF
  *endstep
  *Step, name="SS Dynamic", nlgeom=NO, perturbation
  *steadystatedynamics, frequencyscale=LINEAR
  *steadystatedynamics, frequencyscale=LINEAR
  *cload, real
  *endstep

 ***WARNING: IN THE MODAL PROCEDURES NOT USING SIM ARCHITECTURE, THE REACTION 
             FORCE CALCULATION IS BASED ON MODAL REACTION FORCES EXTRACTED IN 
             FREQUENCY ANALYSIS PROCEDURE. THIS APPROACH DOES NOT TAKE INTO 
             ACCOUNT NON-DIAGONAL MASS MATRIX AND DAMPING MATRIX CONTRIBUTIONS 
             TO THE REACTION FORCES (AS IN THE CASE OF STRUCTURAL ELEMENTS OR 
             SUBSTRUCTURES,ETC.). THEREFORE, IT MAY GIVE RISE TO INCORRECT 
             REACTION FORCE RESULTS. IT IS RECOMMENDED USING THE STEADY STATE 
             DYNAMICS OR TRANSIENT MODAL PROCEDURES BASED ON SIM ARCHITECTURE.



                            P R O B L E M   S I Z E


          NUMBER OF ELEMENTS IS                                    40
          NUMBER OF NODES IS                                      201
          NUMBER OF NODES DEFINED BY THE USER                      81
          NUMBER OF INTERNAL NODES GENERATED BY THE PROGRAM       120
          TOTAL NUMBER OF VARIABLES IN THE MODEL                  243
          (DEGREES OF FREEDOM PLUS MAX NO. OF ANY LAGRANGE MULTIPLIER
           VARIABLES. INCLUDE *PRINT,SOLVE=YES TO GET THE ACTUAL NUMBER.)



                              END OF USER INPUT PROCESSING



     JOB TIME SUMMARY
       USER TIME (SEC)      =  0.20000    
       SYSTEM TIME (SEC)    =  0.10000    
       TOTAL CPU TIME (SEC) =  0.30000    
       WALLCLOCK TIME (SEC) =          1
1

   Abaqus 6.14-1                                  Date 27-Jan-2016   Time 19:21:36
   For use by Supplied By SSQ under license from Dassault Systemes or its subsidiary.

                                                                                               STEP    1  INCREMENT    1
                                                                                          TIME COMPLETED IN THIS STEP   0.00    


                        S T E P       1     S T A T I C   A N A L Y S I S


                                                                                          

     AUTOMATIC TIME CONTROL WITH -
          A SUGGESTED INITIAL TIME INCREMENT OF                 1.00    
          AND A TOTAL TIME PERIOD OF                            1.00    
          THE MINIMUM TIME INCREMENT ALLOWED IS                1.000E-05
          THE MAXIMUM TIME INCREMENT ALLOWED IS                 1.00    

     LINEAR EQUATION SOLVER TYPE         DIRECT SPARSE



                    TOTAL MASS OF MODEL

                       2.439900    


                    LOCATION OF THE CENTER OF MASS OF THE MODEL

                     -5.0000012E-02       0.000000    


                    MOMENT OF INERTIA ABOUT THE ORIGIN
                           I(ZZ)

                      0.2102482    


                    PRODUCT OF INERTIA ABOUT THE ORIGIN
                           I(XY)

                       0.000000    


                    MOMENT OF INERTIA ABOUT THE CENTER OF MASS
                           I(ZZ)

                      0.2041485    


                    PRODUCT OF INERTIA ABOUT THE CENTER OF MASS
                           I(XY)

                       0.000000    
  
                   M E M O R Y   E S T I M A T E
  
 PROCESS      FLOATING PT       MINIMUM MEMORY        MEMORY TO
              OPERATIONS           REQUIRED          MINIMIZE I/O
             PER ITERATION           (MB)               (MB)
  
     1         1.42E+004               20                 26
  
 NOTE:
      (1) SINCE ABAQUS DOES NOT PRE-ALLOCATE MEMORY AND ONLY ALLOCATES MEMORY AS NEEDED DURING THE ANALYSIS,
          THE MEMORY REQUIREMENT PRINTED HERE CAN ONLY BE VIEWED AS A GENERAL GUIDELINE BASED ON THE BEST
          KNOWLEDGE AVAILABLE AT THE BEGINNING OF A STEP BEFORE THE SOLUTION PROCESS HAS BEGUN.
      (2) THE ESTIMATE IS NORMALLY UPDATED AT THE BEGINNING OF EVERY STEP. IT IS THE MAXIMUM VALUE OF THE
          ESTIMATE FROM THE CURRENT STEP TO THE LAST STEP OF THE ANALYSIS, WITH UNSYMMETRIC SOLUTION TAKEN
          INTO ACCOUNT IF APPLICABLE. 
      (3) SINCE THE ESTIMATE IS BASED ON THE ACTIVE DEGREES OF FREEDOM IN THE FIRST ITERATION OF THE 
          CURRENT STEP, THE MEMORY ESTIMATE MIGHT BE SIGNIFICANTLY DIFFERENT THAN ACTUAL USAGE FOR 
          PROBLEMS WITH SUBSTANTIAL CHANGES IN ACTIVE DEGREES OF FREEDOM BETWEEN STEPS (OR EVEN WITHIN
          THE SAME STEP). EXAMPLES ARE: PROBLEMS WITH SIGNIFICANT CONTACT CHANGES, PROBLEMS WITH MODEL
          CHANGE, PROBLEMS WITH BOTH STATIC STEP AND STEADY STATE DYNAMIC PROCEDURES WHERE ACOUSTIC 
          ELEMENTS WILL ONLY BE ACTIVATED IN THE STEADY STATE DYNAMIC STEPS.
      (4) FOR MULTI-PROCESS EXECUTION, THE ESTIMATED VALUE OF FLOATING POINT OPERATIONS FOR EACH PROCESS
          IS BASED ON AN INITIAL SCHEDULING OF OPERATIONS AND MIGHT NOT REFLECT THE ACTUAL FLOATING 
          POINT OPERATIONS COMPLETED ON EACH PROCESS. OPERATIONS ARE DYNAMICALLY BALANCED DURING EXECUTION, 
          SO THE ACTUAL BALANCE OF OPERATIONS BETWEEN PROCESSES IS EXPECTED TO BE BETTER THAN THE ESTIMATE
          PRINTED HERE.
      (5) THE UPPER LIMIT OF MEMORY THAT CAN BE ALLOCATED BY ABAQUS WILL IN GENERAL DEPEND ON THE VALUE OF
          THE "MEMORY" PARAMETER AND THE AMOUNT OF PHYSICAL MEMORY AVAILABLE ON THE MACHINE. PLEASE SEE
          THE "ABAQUS ANALYSIS USER'S MANUAL" FOR MORE DETAILS. THE ACTUAL USAGE OF MEMORY AND OF DISK
          SPACE FOR SCRATCH DATA WILL DEPEND ON THIS UPPER LIMIT AS WELL AS THE MEMORY REQUIRED TO MINIMIZE
          I/O. IF THE MEMORY UPPER LIMIT IS GREATER THAN THE MEMORY REQUIRED TO MINIMIZE I/O, THEN THE ACTUAL
          MEMORY USAGE WILL BE CLOSE TO THE ESTIMATED "MEMORY TO MINIMIZE I/O" VALUE, AND THE SCRATCH DISK
          USAGE WILL BE CLOSE-TO-ZERO; OTHERWISE, THE ACTUAL MEMORY USED WILL BE CLOSE TO THE PREVIOUSLY
          MENTIONED MEMORY LIMIT, AND THE SCRATCH DISK USAGE WILL BE ROUGHLY PROPORTIONAL TO THE DIFFERENCE
          BETWEEN THE ESTIMATED "MEMORY TO MINIMIZE I/O" AND THE MEMORY UPPER LIMIT. HOWEVER ACCURATE
          ESTIMATE OF THE SCRATCH DISK SPACE IS NOT POSSIBLE.
      (6) USING "*RESTART, WRITE" CAN GENERATE A LARGE AMOUNT OF DATA WRITTEN IN THE WORK DIRECTORY.
1

   Abaqus 6.14-1                                  Date 27-Jan-2016   Time 19:21:36
   For use by Supplied By SSQ under license from Dassault Systemes or its subsidiary.

                                                                                               STEP    2  INCREMENT    1
                                                                                          TIME COMPLETED IN THIS STEP   0.00    


                        S T E P       2     C A L C U L A T I O N   O F   E I G E N V A L U E S

                                            F O R   N A T U R A L   F R E Q U E N C I E S



                                                                                          

     THE LANCZOS EIGENSOLVER IS USED FOR THIS ANALYSIS
     Abaqus WILL COMPUTE UNCOUPLED
      STRUCTURAL AND ACOUSTIC MODES
     NUMBER OF EIGENVALUES                      6
     HIGHEST FREQUENCY OF INTEREST                  1.00000E+18
     MAXIMUM NUMBER OF STEPS WITHIN RUN               35
     BLOCK SIZE FOR LANCZOS PROCEDURE                  6
     THE EIGENVECTORS ARE SCALED SO THAT 
      THE LARGEST DISPLACEMENT ENTRY IN EACH VECTOR
      IS UNITY

     THIS IS A LINEAR PERTURBATION STEP.
     ALL LOADS ARE DEFINED AS CHANGE IN LOAD TO THE REFERENCE STATE
  
                   M E M O R Y   E S T I M A T E
  
 PROCESS      FLOATING PT       MINIMUM MEMORY        MEMORY TO
              OPERATIONS           REQUIRED          MINIMIZE I/O
             PER ITERATION           (MB)               (MB)
  
     1         1.42E+004               19                 25
  
 NOTE:
      (1) SINCE ABAQUS DOES NOT PRE-ALLOCATE MEMORY AND ONLY ALLOCATES MEMORY AS NEEDED DURING THE ANALYSIS,
          THE MEMORY REQUIREMENT PRINTED HERE CAN ONLY BE VIEWED AS A GENERAL GUIDELINE BASED ON THE BEST
          KNOWLEDGE AVAILABLE AT THE BEGINNING OF A STEP BEFORE THE SOLUTION PROCESS HAS BEGUN.
      (2) THE ESTIMATE IS NORMALLY UPDATED AT THE BEGINNING OF EVERY STEP. IT IS THE MAXIMUM VALUE OF THE
          ESTIMATE FROM THE CURRENT STEP TO THE LAST STEP OF THE ANALYSIS, WITH UNSYMMETRIC SOLUTION TAKEN
          INTO ACCOUNT IF APPLICABLE. 
      (3) SINCE THE ESTIMATE IS BASED ON THE ACTIVE DEGREES OF FREEDOM IN THE FIRST ITERATION OF THE 
          CURRENT STEP, THE MEMORY ESTIMATE MIGHT BE SIGNIFICANTLY DIFFERENT THAN ACTUAL USAGE FOR 
          PROBLEMS WITH SUBSTANTIAL CHANGES IN ACTIVE DEGREES OF FREEDOM BETWEEN STEPS (OR EVEN WITHIN
          THE SAME STEP). EXAMPLES ARE: PROBLEMS WITH SIGNIFICANT CONTACT CHANGES, PROBLEMS WITH MODEL
          CHANGE, PROBLEMS WITH BOTH STATIC STEP AND STEADY STATE DYNAMIC PROCEDURES WHERE ACOUSTIC 
          ELEMENTS WILL ONLY BE ACTIVATED IN THE STEADY STATE DYNAMIC STEPS.
      (4) FOR MULTI-PROCESS EXECUTION, THE ESTIMATED VALUE OF FLOATING POINT OPERATIONS FOR EACH PROCESS
          IS BASED ON AN INITIAL SCHEDULING OF OPERATIONS AND MIGHT NOT REFLECT THE ACTUAL FLOATING 
          POINT OPERATIONS COMPLETED ON EACH PROCESS. OPERATIONS ARE DYNAMICALLY BALANCED DURING EXECUTION, 
          SO THE ACTUAL BALANCE OF OPERATIONS BETWEEN PROCESSES IS EXPECTED TO BE BETTER THAN THE ESTIMATE
          PRINTED HERE.
      (5) THE UPPER LIMIT OF MEMORY THAT CAN BE ALLOCATED BY ABAQUS WILL IN GENERAL DEPEND ON THE VALUE OF
          THE "MEMORY" PARAMETER AND THE AMOUNT OF PHYSICAL MEMORY AVAILABLE ON THE MACHINE. PLEASE SEE
          THE "ABAQUS ANALYSIS USER'S MANUAL" FOR MORE DETAILS. THE ACTUAL USAGE OF MEMORY AND OF DISK
          SPACE FOR SCRATCH DATA WILL DEPEND ON THIS UPPER LIMIT AS WELL AS THE MEMORY REQUIRED TO MINIMIZE
          I/O. IF THE MEMORY UPPER LIMIT IS GREATER THAN THE MEMORY REQUIRED TO MINIMIZE I/O, THEN THE ACTUAL
          MEMORY USAGE WILL BE CLOSE TO THE ESTIMATED "MEMORY TO MINIMIZE I/O" VALUE, AND THE SCRATCH DISK
          USAGE WILL BE CLOSE-TO-ZERO; OTHERWISE, THE ACTUAL MEMORY USED WILL BE CLOSE TO THE PREVIOUSLY
          MENTIONED MEMORY LIMIT, AND THE SCRATCH DISK USAGE WILL BE ROUGHLY PROPORTIONAL TO THE DIFFERENCE
          BETWEEN THE ESTIMATED "MEMORY TO MINIMIZE I/O" AND THE MEMORY UPPER LIMIT. HOWEVER ACCURATE
          ESTIMATE OF THE SCRATCH DISK SPACE IS NOT POSSIBLE.
      (6) USING "*RESTART, WRITE" CAN GENERATE A LARGE AMOUNT OF DATA WRITTEN IN THE WORK DIRECTORY.


                              E I G E N V A L U E    O U T P U T     

 MODE NO      EIGENVALUE              FREQUENCY         GENERALIZED MASS   COMPOSITE MODAL DAMPING            
                             (RAD/TIME)   (CYCLES/TIME)


       1      1.04881E+05     323.85         51.543        0.61371         0.0000    
       2      3.86695E+06     1966.5         312.97        0.63722         0.0000    
       3      2.76341E+07     5256.8         836.65        0.67238         0.0000    
       4      6.27089E+07     7918.9         1260.3         1.2199         0.0000    
       5      9.41348E+07     9702.3         1544.2        0.71824         0.0000    
       6      2.24976E+08     14999.         2387.2        0.76934         0.0000    


          P A R T I C I P A T I O N   F A C T O R S

 MODE NO    X-COMPONENT    Y-COMPONENT    Z-COMPONENT    X-ROTATION     Y-ROTATION     Z-ROTATION 

       1     -1.30221E-16     1.5626         0.0000         0.0000         0.0000        0.27570    
       2      6.25290E-16   -0.85812         0.0000         0.0000         0.0000        0.29517    
       3      2.19034E-14    0.49463         0.0000         0.0000         0.0000       -0.21151    
       4       1.2732       -3.65585E-15     0.0000         0.0000         0.0000        2.16632E-15
       5     -1.78084E-12   -0.34630         0.0000         0.0000         0.0000        0.16145    
       6     -4.17423E-10    0.26196         0.0000         0.0000         0.0000       -0.12786    


                    E F F E C T I V E   M A S S

 MODE NO    X-COMPONENT    Y-COMPONENT    Z-COMPONENT    X-ROTATION     Y-ROTATION     Z-ROTATION 

       1      1.04070E-32     1.4985         0.0000         0.0000         0.0000        4.66485E-02
       2      2.49146E-31    0.46923         0.0000         0.0000         0.0000        5.55166E-02
       3      3.22581E-28    0.16450         0.0000         0.0000         0.0000        3.00807E-02
       4       1.9777        1.63049E-29     0.0000         0.0000         0.0000        5.72515E-30
       5      2.27782E-24    8.61352E-02     0.0000         0.0000         0.0000        1.87207E-02
       6      1.34052E-19    5.27928E-02     0.0000         0.0000         0.0000        1.25773E-02

 TOTAL         1.9777         2.2711         0.0000         0.0000         0.0000        0.16354    
1

   Abaqus 6.14-1                                  Date 27-Jan-2016   Time 19:21:36
   For use by Supplied By SSQ under license from Dassault Systemes or its subsidiary.

                                                                                               STEP    3  INCREMENT    1
                                                                                          TIME COMPLETED IN THIS STEP   0.00    


                        S T E P       3     S T E A D Y   S T A T E   A N A L Y S I S                


                                                                                          
          FULL STRUCTURAL-ACOUSTIC COUPLING IS USED IN THIS
          FORCED RESPONSE ANALYSIS
          FREQUENCY RANGE DEFINITIONS (CYCLES/TIME)
                LOW         HIGH        POINTS        BIAS     SCALE FACTOR  TYPE OF SCALING


              1.505E-08     350.          700         1.00         1.00       Linear          
          INTERVAL WILL BE DIVIDED FIRST USING EIGENFREQUENCIES.


     THIS IS A LINEAR PERTURBATION STEP.
     ALL LOADS ARE DEFINED AS CHANGE IN LOAD TO THE REFERENCE STATE
  
                   M E M O R Y   E S T I M A T E
  
 PROCESS      FLOATING PT       MINIMUM MEMORY        MEMORY TO
              OPERATIONS           REQUIRED          MINIMIZE I/O
             PER ITERATION           (MB)               (MB)
  
     1         0.00E+000               16                 16
  
 NOTE:
      (1) SINCE ABAQUS DOES NOT PRE-ALLOCATE MEMORY AND ONLY ALLOCATES MEMORY AS NEEDED DURING THE ANALYSIS,
          THE MEMORY REQUIREMENT PRINTED HERE CAN ONLY BE VIEWED AS A GENERAL GUIDELINE BASED ON THE BEST
          KNOWLEDGE AVAILABLE AT THE BEGINNING OF A STEP BEFORE THE SOLUTION PROCESS HAS BEGUN.
      (2) THE ESTIMATE IS NORMALLY UPDATED AT THE BEGINNING OF EVERY STEP. IT IS THE MAXIMUM VALUE OF THE
          ESTIMATE FROM THE CURRENT STEP TO THE LAST STEP OF THE ANALYSIS, WITH UNSYMMETRIC SOLUTION TAKEN
          INTO ACCOUNT IF APPLICABLE. 
      (3) SINCE THE ESTIMATE IS BASED ON THE ACTIVE DEGREES OF FREEDOM IN THE FIRST ITERATION OF THE 
          CURRENT STEP, THE MEMORY ESTIMATE MIGHT BE SIGNIFICANTLY DIFFERENT THAN ACTUAL USAGE FOR 
          PROBLEMS WITH SUBSTANTIAL CHANGES IN ACTIVE DEGREES OF FREEDOM BETWEEN STEPS (OR EVEN WITHIN
          THE SAME STEP). EXAMPLES ARE: PROBLEMS WITH SIGNIFICANT CONTACT CHANGES, PROBLEMS WITH MODEL
          CHANGE, PROBLEMS WITH BOTH STATIC STEP AND STEADY STATE DYNAMIC PROCEDURES WHERE ACOUSTIC 
          ELEMENTS WILL ONLY BE ACTIVATED IN THE STEADY STATE DYNAMIC STEPS.
      (4) FOR MULTI-PROCESS EXECUTION, THE ESTIMATED VALUE OF FLOATING POINT OPERATIONS FOR EACH PROCESS
          IS BASED ON AN INITIAL SCHEDULING OF OPERATIONS AND MIGHT NOT REFLECT THE ACTUAL FLOATING 
          POINT OPERATIONS COMPLETED ON EACH PROCESS. OPERATIONS ARE DYNAMICALLY BALANCED DURING EXECUTION, 
          SO THE ACTUAL BALANCE OF OPERATIONS BETWEEN PROCESSES IS EXPECTED TO BE BETTER THAN THE ESTIMATE
          PRINTED HERE.
      (5) THE UPPER LIMIT OF MEMORY THAT CAN BE ALLOCATED BY ABAQUS WILL IN GENERAL DEPEND ON THE VALUE OF
          THE "MEMORY" PARAMETER AND THE AMOUNT OF PHYSICAL MEMORY AVAILABLE ON THE MACHINE. PLEASE SEE
          THE "ABAQUS ANALYSIS USER'S MANUAL" FOR MORE DETAILS. THE ACTUAL USAGE OF MEMORY AND OF DISK
          SPACE FOR SCRATCH DATA WILL DEPEND ON THIS UPPER LIMIT AS WELL AS THE MEMORY REQUIRED TO MINIMIZE
          I/O. IF THE MEMORY UPPER LIMIT IS GREATER THAN THE MEMORY REQUIRED TO MINIMIZE I/O, THEN THE ACTUAL
          MEMORY USAGE WILL BE CLOSE TO THE ESTIMATED "MEMORY TO MINIMIZE I/O" VALUE, AND THE SCRATCH DISK
          USAGE WILL BE CLOSE-TO-ZERO; OTHERWISE, THE ACTUAL MEMORY USED WILL BE CLOSE TO THE PREVIOUSLY
          MENTIONED MEMORY LIMIT, AND THE SCRATCH DISK USAGE WILL BE ROUGHLY PROPORTIONAL TO THE DIFFERENCE
          BETWEEN THE ESTIMATED "MEMORY TO MINIMIZE I/O" AND THE MEMORY UPPER LIMIT. HOWEVER ACCURATE
          ESTIMATE OF THE SCRATCH DISK SPACE IS NOT POSSIBLE.
      (6) USING "*RESTART, WRITE" CAN GENERATE A LARGE AMOUNT OF DATA WRITTEN IN THE WORK DIRECTORY.


                              INCREMENT NUMBER     1
                              FREQUENCY =  1.50486611E-08



                              INCREMENT NUMBER     2
                              FREQUENCY =  7.37378890E-02



                              INCREMENT NUMBER     3
                              FREQUENCY =  0.14747576    



                              INCREMENT NUMBER     4
                              FREQUENCY =  0.22121364    



                              INCREMENT NUMBER     5
                              FREQUENCY =  0.29495151    



                              INCREMENT NUMBER     6
                              FREQUENCY =  0.36868938    



                              INCREMENT NUMBER     7
                              FREQUENCY =  0.44242726    



                              INCREMENT NUMBER     8
                              FREQUENCY =  0.51616513    



                              INCREMENT NUMBER     9
                              FREQUENCY =  0.58990301    



                              INCREMENT NUMBER    10
                              FREQUENCY =  0.66364088    



                              INCREMENT NUMBER    11
                              FREQUENCY =  0.73737875    



                              INCREMENT NUMBER    12
                              FREQUENCY =  0.81111663    



                              INCREMENT NUMBER    13
                              FREQUENCY =  0.88485450    



                              INCREMENT NUMBER    14
                              FREQUENCY =  0.95859238    



                              INCREMENT NUMBER    15
                              FREQUENCY =   1.0323303    



                              INCREMENT NUMBER    16
                              FREQUENCY =   1.1060681    



                              INCREMENT NUMBER    17
                              FREQUENCY =   1.1798060    



                              INCREMENT NUMBER    18
                              FREQUENCY =   1.2535439    



                              INCREMENT NUMBER    19
                              FREQUENCY =   1.3272817    



                              INCREMENT NUMBER    20
                              FREQUENCY =   1.4010196    



                              INCREMENT NUMBER    21
                              FREQUENCY =   1.4747575    



                              INCREMENT NUMBER    22
                              FREQUENCY =   1.5484954    



                              INCREMENT NUMBER    23
                              FREQUENCY =   1.6222332    



                              INCREMENT NUMBER    24
                              FREQUENCY =   1.6959711    



                              INCREMENT NUMBER    25
                              FREQUENCY =   1.7697090    



                              INCREMENT NUMBER    26
                              FREQUENCY =   1.8434469    



                              INCREMENT NUMBER    27
                              FREQUENCY =   1.9171847    



                              INCREMENT NUMBER    28
                              FREQUENCY =   1.9909226    



                              INCREMENT NUMBER    29
                              FREQUENCY =   2.0646605    



                              INCREMENT NUMBER    30
                              FREQUENCY =   2.1383984    



                              INCREMENT NUMBER    31
                              FREQUENCY =   2.2121362    



                              INCREMENT NUMBER    32
                              FREQUENCY =   2.2858741    



                              INCREMENT NUMBER    33
                              FREQUENCY =   2.3596120    



                              INCREMENT NUMBER    34
                              FREQUENCY =   2.4333499    



                              INCREMENT NUMBER    35
                              FREQUENCY =   2.5070877    



                              INCREMENT NUMBER    36
                              FREQUENCY =   2.5808256    



                              INCREMENT NUMBER    37
                              FREQUENCY =   2.6545635    



                              INCREMENT NUMBER    38
                              FREQUENCY =   2.7283014    



                              INCREMENT NUMBER    39
                              FREQUENCY =   2.8020392    



                              INCREMENT NUMBER    40
                              FREQUENCY =   2.8757771    



                              INCREMENT NUMBER    41
                              FREQUENCY =   2.9495150    



                              INCREMENT NUMBER    42
                              FREQUENCY =   3.0232528    



                              INCREMENT NUMBER    43
                              FREQUENCY =   3.0969907    



                              INCREMENT NUMBER    44
                              FREQUENCY =   3.1707286    



                              INCREMENT NUMBER    45
                              FREQUENCY =   3.2444665    



                              INCREMENT NUMBER    46
                              FREQUENCY =   3.3182043    



                              INCREMENT NUMBER    47
                              FREQUENCY =   3.3919422    



                              INCREMENT NUMBER    48
                              FREQUENCY =   3.4656801    



                              INCREMENT NUMBER    49
                              FREQUENCY =   3.5394180    



                              INCREMENT NUMBER    50
                              FREQUENCY =   3.6131558    



                              INCREMENT NUMBER    51
                              FREQUENCY =   3.6868937    



                              INCREMENT NUMBER    52
                              FREQUENCY =   3.7606316    



                              INCREMENT NUMBER    53
                              FREQUENCY =   3.8343695    



                              INCREMENT NUMBER    54
                              FREQUENCY =   3.9081073    



                              INCREMENT NUMBER    55
                              FREQUENCY =   3.9818452    



                              INCREMENT NUMBER    56
                              FREQUENCY =   4.0555831    



                              INCREMENT NUMBER    57
                              FREQUENCY =   4.1293210    



                              INCREMENT NUMBER    58
                              FREQUENCY =   4.2030588    



                              INCREMENT NUMBER    59
                              FREQUENCY =   4.2767967    



                              INCREMENT NUMBER    60
                              FREQUENCY =   4.3505346    



                              INCREMENT NUMBER    61
                              FREQUENCY =   4.4242725    



                              INCREMENT NUMBER    62
                              FREQUENCY =   4.4980103    



                              INCREMENT NUMBER    63
                              FREQUENCY =   4.5717482    



                              INCREMENT NUMBER    64
                              FREQUENCY =   4.6454861    



                              INCREMENT NUMBER    65
                              FREQUENCY =   4.7192239    



                              INCREMENT NUMBER    66
                              FREQUENCY =   4.7929618    



                              INCREMENT NUMBER    67
                              FREQUENCY =   4.8666997    



                              INCREMENT NUMBER    68
                              FREQUENCY =   4.9404376    



                              INCREMENT NUMBER    69
                              FREQUENCY =   5.0141754    



                              INCREMENT NUMBER    70
                              FREQUENCY =   5.0879133    



                              INCREMENT NUMBER    71
                              FREQUENCY =   5.1616512    



                              INCREMENT NUMBER    72
                              FREQUENCY =   5.2353891    



                              INCREMENT NUMBER    73
                              FREQUENCY =   5.3091269    



                              INCREMENT NUMBER    74
                              FREQUENCY =   5.3828648    



                              INCREMENT NUMBER    75
                              FREQUENCY =   5.4566027    



                              INCREMENT NUMBER    76
                              FREQUENCY =   5.5303406    



                              INCREMENT NUMBER    77
                              FREQUENCY =   5.6040784    



                              INCREMENT NUMBER    78
                              FREQUENCY =   5.6778163    



                              INCREMENT NUMBER    79
                              FREQUENCY =   5.7515542    



                              INCREMENT NUMBER    80
                              FREQUENCY =   5.8252921    



                              INCREMENT NUMBER    81
                              FREQUENCY =   5.8990299    



                              INCREMENT NUMBER    82
                              FREQUENCY =   5.9727678    



                              INCREMENT NUMBER    83
                              FREQUENCY =   6.0465057    



                              INCREMENT NUMBER    84
                              FREQUENCY =   6.1202436    



                              INCREMENT NUMBER    85
                              FREQUENCY =   6.1939814    



                              INCREMENT NUMBER    86
                              FREQUENCY =   6.2677193    



                              INCREMENT NUMBER    87
                              FREQUENCY =   6.3414572    



                              INCREMENT NUMBER    88
                              FREQUENCY =   6.4151950    



                              INCREMENT NUMBER    89
                              FREQUENCY =   6.4889329    



                              INCREMENT NUMBER    90
                              FREQUENCY =   6.5626708    



                              INCREMENT NUMBER    91
                              FREQUENCY =   6.6364087    



                              INCREMENT NUMBER    92
                              FREQUENCY =   6.7101465    



                              INCREMENT NUMBER    93
                              FREQUENCY =   6.7838844    



                              INCREMENT NUMBER    94
                              FREQUENCY =   6.8576223    



                              INCREMENT NUMBER    95
                              FREQUENCY =   6.9313602    



                              INCREMENT NUMBER    96
                              FREQUENCY =   7.0050980    



                              INCREMENT NUMBER    97
                              FREQUENCY =   7.0788359    



                              INCREMENT NUMBER    98
                              FREQUENCY =   7.1525738    



                              INCREMENT NUMBER    99
                              FREQUENCY =   7.2263117    



                              INCREMENT NUMBER   100
                              FREQUENCY =   7.3000495    



                              INCREMENT NUMBER   101
                              FREQUENCY =   7.3737874    



                              INCREMENT NUMBER   102
                              FREQUENCY =   7.4475253    



                              INCREMENT NUMBER   103
                              FREQUENCY =   7.5212632    



                              INCREMENT NUMBER   104
                              FREQUENCY =   7.5950010    



                              INCREMENT NUMBER   105
                              FREQUENCY =   7.6687389    



                              INCREMENT NUMBER   106
                              FREQUENCY =   7.7424768    



                              INCREMENT NUMBER   107
                              FREQUENCY =   7.8162147    



                              INCREMENT NUMBER   108
                              FREQUENCY =   7.8899525    



                              INCREMENT NUMBER   109
                              FREQUENCY =   7.9636904    



                              INCREMENT NUMBER   110
                              FREQUENCY =   8.0374283    



                              INCREMENT NUMBER   111
                              FREQUENCY =   8.1111661    



                              INCREMENT NUMBER   112
                              FREQUENCY =   8.1849040    



                              INCREMENT NUMBER   113
                              FREQUENCY =   8.2586419    



                              INCREMENT NUMBER   114
                              FREQUENCY =   8.3323798    



                              INCREMENT NUMBER   115
                              FREQUENCY =   8.4061176    



                              INCREMENT NUMBER   116
                              FREQUENCY =   8.4798555    



                              INCREMENT NUMBER   117
                              FREQUENCY =   8.5535934    



                              INCREMENT NUMBER   118
                              FREQUENCY =   8.6273313    



                              INCREMENT NUMBER   119
                              FREQUENCY =   8.7010691    



                              INCREMENT NUMBER   120
                              FREQUENCY =   8.7748070    



                              INCREMENT NUMBER   121
                              FREQUENCY =   8.8485449    



                              INCREMENT NUMBER   122
                              FREQUENCY =   8.9222828    



                              INCREMENT NUMBER   123
                              FREQUENCY =   8.9960206    



                              INCREMENT NUMBER   124
                              FREQUENCY =   9.0697585    



                              INCREMENT NUMBER   125
                              FREQUENCY =   9.1434964    



                              INCREMENT NUMBER   126
                              FREQUENCY =   9.2172343    



                              INCREMENT NUMBER   127
                              FREQUENCY =   9.2909721    



                              INCREMENT NUMBER   128
                              FREQUENCY =   9.3647100    



                              INCREMENT NUMBER   129
                              FREQUENCY =   9.4384479    



                              INCREMENT NUMBER   130
                              FREQUENCY =   9.5121858    



                              INCREMENT NUMBER   131
                              FREQUENCY =   9.5859236    



                              INCREMENT NUMBER   132
                              FREQUENCY =   9.6596615    



                              INCREMENT NUMBER   133
                              FREQUENCY =   9.7333994    



                              INCREMENT NUMBER   134
                              FREQUENCY =   9.8071372    



                              INCREMENT NUMBER   135
                              FREQUENCY =   9.8808751    



                              INCREMENT NUMBER   136
                              FREQUENCY =   9.9546130    



                              INCREMENT NUMBER   137
                              FREQUENCY =   10.028351    



                              INCREMENT NUMBER   138
                              FREQUENCY =   10.102089    



                              INCREMENT NUMBER   139
                              FREQUENCY =   10.175827    



                              INCREMENT NUMBER   140
                              FREQUENCY =   10.249564    



                              INCREMENT NUMBER   141
                              FREQUENCY =   10.323302    



                              INCREMENT NUMBER   142
                              FREQUENCY =   10.397040    



                              INCREMENT NUMBER   143
                              FREQUENCY =   10.470778    



                              INCREMENT NUMBER   144
                              FREQUENCY =   10.544516    



                              INCREMENT NUMBER   145
                              FREQUENCY =   10.618254    



                              INCREMENT NUMBER   146
                              FREQUENCY =   10.691992    



                              INCREMENT NUMBER   147
                              FREQUENCY =   10.765730    



                              INCREMENT NUMBER   148
                              FREQUENCY =   10.839467    



                              INCREMENT NUMBER   149
                              FREQUENCY =   10.913205    



                              INCREMENT NUMBER   150
                              FREQUENCY =   10.986943    



                              INCREMENT NUMBER   151
                              FREQUENCY =   11.060681    



                              INCREMENT NUMBER   152
                              FREQUENCY =   11.134419    



                              INCREMENT NUMBER   153
                              FREQUENCY =   11.208157    



                              INCREMENT NUMBER   154
                              FREQUENCY =   11.281895    



                              INCREMENT NUMBER   155
                              FREQUENCY =   11.355633    



                              INCREMENT NUMBER   156
                              FREQUENCY =   11.429370    



                              INCREMENT NUMBER   157
                              FREQUENCY =   11.503108    



                              INCREMENT NUMBER   158
                              FREQUENCY =   11.576846    



                              INCREMENT NUMBER   159
                              FREQUENCY =   11.650584    



                              INCREMENT NUMBER   160
                              FREQUENCY =   11.724322    



                              INCREMENT NUMBER   161
                              FREQUENCY =   11.798060    



                              INCREMENT NUMBER   162
                              FREQUENCY =   11.871798    



                              INCREMENT NUMBER   163
                              FREQUENCY =   11.945536    



                              INCREMENT NUMBER   164
                              FREQUENCY =   12.019273    



                              INCREMENT NUMBER   165
                              FREQUENCY =   12.093011    



                              INCREMENT NUMBER   166
                              FREQUENCY =   12.166749    



                              INCREMENT NUMBER   167
                              FREQUENCY =   12.240487    



                              INCREMENT NUMBER   168
                              FREQUENCY =   12.314225    



                              INCREMENT NUMBER   169
                              FREQUENCY =   12.387963    



                              INCREMENT NUMBER   170
                              FREQUENCY =   12.461701    



                              INCREMENT NUMBER   171
                              FREQUENCY =   12.535439    



                              INCREMENT NUMBER   172
                              FREQUENCY =   12.609176    



                              INCREMENT NUMBER   173
                              FREQUENCY =   12.682914    



                              INCREMENT NUMBER   174
                              FREQUENCY =   12.756652    



                              INCREMENT NUMBER   175
                              FREQUENCY =   12.830390    



                              INCREMENT NUMBER   176
                              FREQUENCY =   12.904128    



                              INCREMENT NUMBER   177
                              FREQUENCY =   12.977866    



                              INCREMENT NUMBER   178
                              FREQUENCY =   13.051604    



                              INCREMENT NUMBER   179
                              FREQUENCY =   13.125342    



                              INCREMENT NUMBER   180
                              FREQUENCY =   13.199079    



                              INCREMENT NUMBER   181
                              FREQUENCY =   13.272817    



                              INCREMENT NUMBER   182
                              FREQUENCY =   13.346555    



                              INCREMENT NUMBER   183
                              FREQUENCY =   13.420293    



                              INCREMENT NUMBER   184
                              FREQUENCY =   13.494031    



                              INCREMENT NUMBER   185
                              FREQUENCY =   13.567769    



                              INCREMENT NUMBER   186
                              FREQUENCY =   13.641507    



                              INCREMENT NUMBER   187
                              FREQUENCY =   13.715245    



                              INCREMENT NUMBER   188
                              FREQUENCY =   13.788982    



                              INCREMENT NUMBER   189
                              FREQUENCY =   13.862720    



                              INCREMENT NUMBER   190
                              FREQUENCY =   13.936458    



                              INCREMENT NUMBER   191
                              FREQUENCY =   14.010196    



                              INCREMENT NUMBER   192
                              FREQUENCY =   14.083934    



                              INCREMENT NUMBER   193
                              FREQUENCY =   14.157672    



                              INCREMENT NUMBER   194
                              FREQUENCY =   14.231410    



                              INCREMENT NUMBER   195
                              FREQUENCY =   14.305148    



                              INCREMENT NUMBER   196
                              FREQUENCY =   14.378885    



                              INCREMENT NUMBER   197
                              FREQUENCY =   14.452623    



                              INCREMENT NUMBER   198
                              FREQUENCY =   14.526361    



                              INCREMENT NUMBER   199
                              FREQUENCY =   14.600099    



                              INCREMENT NUMBER   200
                              FREQUENCY =   14.673837    



                              INCREMENT NUMBER   201
                              FREQUENCY =   14.747575    



                              INCREMENT NUMBER   202
                              FREQUENCY =   14.821313    



                              INCREMENT NUMBER   203
                              FREQUENCY =   14.895051    



                              INCREMENT NUMBER   204
                              FREQUENCY =   14.968788    



                              INCREMENT NUMBER   205
                              FREQUENCY =   15.042526    



                              INCREMENT NUMBER   206
                              FREQUENCY =   15.116264    



                              INCREMENT NUMBER   207
                              FREQUENCY =   15.190002    



                              INCREMENT NUMBER   208
                              FREQUENCY =   15.263740    



                              INCREMENT NUMBER   209
                              FREQUENCY =   15.337478    



                              INCREMENT NUMBER   210
                              FREQUENCY =   15.411216    



                              INCREMENT NUMBER   211
                              FREQUENCY =   15.484954    



                              INCREMENT NUMBER   212
                              FREQUENCY =   15.558691    



                              INCREMENT NUMBER   213
                              FREQUENCY =   15.632429    



                              INCREMENT NUMBER   214
                              FREQUENCY =   15.706167    



                              INCREMENT NUMBER   215
                              FREQUENCY =   15.779905    



                              INCREMENT NUMBER   216
                              FREQUENCY =   15.853643    



                              INCREMENT NUMBER   217
                              FREQUENCY =   15.927381    



                              INCREMENT NUMBER   218
                              FREQUENCY =   16.001119    



                              INCREMENT NUMBER   219
                              FREQUENCY =   16.074857    



                              INCREMENT NUMBER   220
                              FREQUENCY =   16.148594    



                              INCREMENT NUMBER   221
                              FREQUENCY =   16.222332    



                              INCREMENT NUMBER   222
                              FREQUENCY =   16.296070    



                              INCREMENT NUMBER   223
                              FREQUENCY =   16.369808    



                              INCREMENT NUMBER   224
                              FREQUENCY =   16.443546    



                              INCREMENT NUMBER   225
                              FREQUENCY =   16.517284    



                              INCREMENT NUMBER   226
                              FREQUENCY =   16.591022    



                              INCREMENT NUMBER   227
                              FREQUENCY =   16.664760    



                              INCREMENT NUMBER   228
                              FREQUENCY =   16.738497    



                              INCREMENT NUMBER   229
                              FREQUENCY =   16.812235    



                              INCREMENT NUMBER   230
                              FREQUENCY =   16.885973    



                              INCREMENT NUMBER   231
                              FREQUENCY =   16.959711    



                              INCREMENT NUMBER   232
                              FREQUENCY =   17.033449    



                              INCREMENT NUMBER   233
                              FREQUENCY =   17.107187    



                              INCREMENT NUMBER   234
                              FREQUENCY =   17.180925    



                              INCREMENT NUMBER   235
                              FREQUENCY =   17.254663    



                              INCREMENT NUMBER   236
                              FREQUENCY =   17.328400    



                              INCREMENT NUMBER   237
                              FREQUENCY =   17.402138    



                              INCREMENT NUMBER   238
                              FREQUENCY =   17.475876    



                              INCREMENT NUMBER   239
                              FREQUENCY =   17.549614    



                              INCREMENT NUMBER   240
                              FREQUENCY =   17.623352    



                              INCREMENT NUMBER   241
                              FREQUENCY =   17.697090    



                              INCREMENT NUMBER   242
                              FREQUENCY =   17.770828    



                              INCREMENT NUMBER   243
                              FREQUENCY =   17.844566    



                              INCREMENT NUMBER   244
                              FREQUENCY =   17.918303    



                              INCREMENT NUMBER   245
                              FREQUENCY =   17.992041    



                              INCREMENT NUMBER   246
                              FREQUENCY =   18.065779    



                              INCREMENT NUMBER   247
                              FREQUENCY =   18.139517    



                              INCREMENT NUMBER   248
                              FREQUENCY =   18.213255    



                              INCREMENT NUMBER   249
                              FREQUENCY =   18.286993    



                              INCREMENT NUMBER   250
                              FREQUENCY =   18.360731    



                              INCREMENT NUMBER   251
                              FREQUENCY =   18.434469    



                              INCREMENT NUMBER   252
                              FREQUENCY =   18.508206    



                              INCREMENT NUMBER   253
                              FREQUENCY =   18.581944    



                              INCREMENT NUMBER   254
                              FREQUENCY =   18.655682    



                              INCREMENT NUMBER   255
                              FREQUENCY =   18.729420    



                              INCREMENT NUMBER   256
                              FREQUENCY =   18.803158    



                              INCREMENT NUMBER   257
                              FREQUENCY =   18.876896    



                              INCREMENT NUMBER   258
                              FREQUENCY =   18.950634    



                              INCREMENT NUMBER   259
                              FREQUENCY =   19.024371    



                              INCREMENT NUMBER   260
                              FREQUENCY =   19.098109    



                              INCREMENT NUMBER   261
                              FREQUENCY =   19.171847    



                              INCREMENT NUMBER   262
                              FREQUENCY =   19.245585    



                              INCREMENT NUMBER   263
                              FREQUENCY =   19.319323    



                              INCREMENT NUMBER   264
                              FREQUENCY =   19.393061    



                              INCREMENT NUMBER   265
                              FREQUENCY =   19.466799    



                              INCREMENT NUMBER   266
                              FREQUENCY =   19.540537    



                              INCREMENT NUMBER   267
                              FREQUENCY =   19.614274    



                              INCREMENT NUMBER   268
                              FREQUENCY =   19.688012    



                              INCREMENT NUMBER   269
                              FREQUENCY =   19.761750    



                              INCREMENT NUMBER   270
                              FREQUENCY =   19.835488    



                              INCREMENT NUMBER   271
                              FREQUENCY =   19.909226    



                              INCREMENT NUMBER   272
                              FREQUENCY =   19.982964    



                              INCREMENT NUMBER   273
                              FREQUENCY =   20.056702    



                              INCREMENT NUMBER   274
                              FREQUENCY =   20.130440    



                              INCREMENT NUMBER   275
                              FREQUENCY =   20.204177    



                              INCREMENT NUMBER   276
                              FREQUENCY =   20.277915    



                              INCREMENT NUMBER   277
                              FREQUENCY =   20.351653    



                              INCREMENT NUMBER   278
                              FREQUENCY =   20.425391    



                              INCREMENT NUMBER   279
                              FREQUENCY =   20.499129    



                              INCREMENT NUMBER   280
                              FREQUENCY =   20.572867    



                              INCREMENT NUMBER   281
                              FREQUENCY =   20.646605    



                              INCREMENT NUMBER   282
                              FREQUENCY =   20.720343    



                              INCREMENT NUMBER   283
                              FREQUENCY =   20.794080    



                              INCREMENT NUMBER   284
                              FREQUENCY =   20.867818    



                              INCREMENT NUMBER   285
                              FREQUENCY =   20.941556    



                              INCREMENT NUMBER   286
                              FREQUENCY =   21.015294    



                              INCREMENT NUMBER   287
                              FREQUENCY =   21.089032    



                              INCREMENT NUMBER   288
                              FREQUENCY =   21.162770    



                              INCREMENT NUMBER   289
                              FREQUENCY =   21.236508    



                              INCREMENT NUMBER   290
                              FREQUENCY =   21.310246    



                              INCREMENT NUMBER   291
                              FREQUENCY =   21.383983    



                              INCREMENT NUMBER   292
                              FREQUENCY =   21.457721    



                              INCREMENT NUMBER   293
                              FREQUENCY =   21.531459    



                              INCREMENT NUMBER   294
                              FREQUENCY =   21.605197    



                              INCREMENT NUMBER   295
                              FREQUENCY =   21.678935    



                              INCREMENT NUMBER   296
                              FREQUENCY =   21.752673    



                              INCREMENT NUMBER   297
                              FREQUENCY =   21.826411    



                              INCREMENT NUMBER   298
                              FREQUENCY =   21.900149    



                              INCREMENT NUMBER   299
                              FREQUENCY =   21.973886    



                              INCREMENT NUMBER   300
                              FREQUENCY =   22.047624    



                              INCREMENT NUMBER   301
                              FREQUENCY =   22.121362    



                              INCREMENT NUMBER   302
                              FREQUENCY =   22.195100    



                              INCREMENT NUMBER   303
                              FREQUENCY =   22.268838    



                              INCREMENT NUMBER   304
                              FREQUENCY =   22.342576    



                              INCREMENT NUMBER   305
                              FREQUENCY =   22.416314    



                              INCREMENT NUMBER   306
                              FREQUENCY =   22.490052    



                              INCREMENT NUMBER   307
                              FREQUENCY =   22.563789    



                              INCREMENT NUMBER   308
                              FREQUENCY =   22.637527    



                              INCREMENT NUMBER   309
                              FREQUENCY =   22.711265    



                              INCREMENT NUMBER   310
                              FREQUENCY =   22.785003    



                              INCREMENT NUMBER   311
                              FREQUENCY =   22.858741    



                              INCREMENT NUMBER   312
                              FREQUENCY =   22.932479    



                              INCREMENT NUMBER   313
                              FREQUENCY =   23.006217    



                              INCREMENT NUMBER   314
                              FREQUENCY =   23.079955    



                              INCREMENT NUMBER   315
                              FREQUENCY =   23.153692    



                              INCREMENT NUMBER   316
                              FREQUENCY =   23.227430    



                              INCREMENT NUMBER   317
                              FREQUENCY =   23.301168    



                              INCREMENT NUMBER   318
                              FREQUENCY =   23.374906    



                              INCREMENT NUMBER   319
                              FREQUENCY =   23.448644    



                              INCREMENT NUMBER   320
                              FREQUENCY =   23.522382    



                              INCREMENT NUMBER   321
                              FREQUENCY =   23.596120    



                              INCREMENT NUMBER   322
                              FREQUENCY =   23.669858    



                              INCREMENT NUMBER   323
                              FREQUENCY =   23.743595    



                              INCREMENT NUMBER   324
                              FREQUENCY =   23.817333    



                              INCREMENT NUMBER   325
                              FREQUENCY =   23.891071    



                              INCREMENT NUMBER   326
                              FREQUENCY =   23.964809    



                              INCREMENT NUMBER   327
                              FREQUENCY =   24.038547    



                              INCREMENT NUMBER   328
                              FREQUENCY =   24.112285    



                              INCREMENT NUMBER   329
                              FREQUENCY =   24.186023    



                              INCREMENT NUMBER   330
                              FREQUENCY =   24.259761    



                              INCREMENT NUMBER   331
                              FREQUENCY =   24.333498    



                              INCREMENT NUMBER   332
                              FREQUENCY =   24.407236    



                              INCREMENT NUMBER   333
                              FREQUENCY =   24.480974    



                              INCREMENT NUMBER   334
                              FREQUENCY =   24.554712    



                              INCREMENT NUMBER   335
                              FREQUENCY =   24.628450    



                              INCREMENT NUMBER   336
                              FREQUENCY =   24.702188    



                              INCREMENT NUMBER   337
                              FREQUENCY =   24.775926    



                              INCREMENT NUMBER   338
                              FREQUENCY =   24.849664    



                              INCREMENT NUMBER   339
                              FREQUENCY =   24.923401    



                              INCREMENT NUMBER   340
                              FREQUENCY =   24.997139    



                              INCREMENT NUMBER   341
                              FREQUENCY =   25.070877    



                              INCREMENT NUMBER   342
                              FREQUENCY =   25.144615    



                              INCREMENT NUMBER   343
                              FREQUENCY =   25.218353    



                              INCREMENT NUMBER   344
                              FREQUENCY =   25.292091    



                              INCREMENT NUMBER   345
                              FREQUENCY =   25.365829    



                              INCREMENT NUMBER   346
                              FREQUENCY =   25.439567    



                              INCREMENT NUMBER   347
                              FREQUENCY =   25.513304    



                              INCREMENT NUMBER   348
                              FREQUENCY =   25.587042    



                              INCREMENT NUMBER   349
                              FREQUENCY =   25.660780    



                              INCREMENT NUMBER   350
                              FREQUENCY =   25.734518    



                              INCREMENT NUMBER   351
                              FREQUENCY =   25.808256    



                              INCREMENT NUMBER   352
                              FREQUENCY =   25.881994    



                              INCREMENT NUMBER   353
                              FREQUENCY =   25.955732    



                              INCREMENT NUMBER   354
                              FREQUENCY =   26.029470    



                              INCREMENT NUMBER   355
                              FREQUENCY =   26.103207    



                              INCREMENT NUMBER   356
                              FREQUENCY =   26.176945    



                              INCREMENT NUMBER   357
                              FREQUENCY =   26.250683    



                              INCREMENT NUMBER   358
                              FREQUENCY =   26.324421    



                              INCREMENT NUMBER   359
                              FREQUENCY =   26.398159    



                              INCREMENT NUMBER   360
                              FREQUENCY =   26.471897    



                              INCREMENT NUMBER   361
                              FREQUENCY =   26.545635    



                              INCREMENT NUMBER   362
                              FREQUENCY =   26.619373    



                              INCREMENT NUMBER   363
                              FREQUENCY =   26.693110    



                              INCREMENT NUMBER   364
                              FREQUENCY =   26.766848    



                              INCREMENT NUMBER   365
                              FREQUENCY =   26.840586    



                              INCREMENT NUMBER   366
                              FREQUENCY =   26.914324    



                              INCREMENT NUMBER   367
                              FREQUENCY =   26.988062    



                              INCREMENT NUMBER   368
                              FREQUENCY =   27.061800    



                              INCREMENT NUMBER   369
                              FREQUENCY =   27.135538    



                              INCREMENT NUMBER   370
                              FREQUENCY =   27.209276    



                              INCREMENT NUMBER   371
                              FREQUENCY =   27.283013    



                              INCREMENT NUMBER   372
                              FREQUENCY =   27.356751    



                              INCREMENT NUMBER   373
                              FREQUENCY =   27.430489    



                              INCREMENT NUMBER   374
                              FREQUENCY =   27.504227    



                              INCREMENT NUMBER   375
                              FREQUENCY =   27.577965    



                              INCREMENT NUMBER   376
                              FREQUENCY =   27.651703    



                              INCREMENT NUMBER   377
                              FREQUENCY =   27.725441    



                              INCREMENT NUMBER   378
                              FREQUENCY =   27.799178    



                              INCREMENT NUMBER   379
                              FREQUENCY =   27.872916    



                              INCREMENT NUMBER   380
                              FREQUENCY =   27.946654    



                              INCREMENT NUMBER   381
                              FREQUENCY =   28.020392    



                              INCREMENT NUMBER   382
                              FREQUENCY =   28.094130    



                              INCREMENT NUMBER   383
                              FREQUENCY =   28.167868    



                              INCREMENT NUMBER   384
                              FREQUENCY =   28.241606    



                              INCREMENT NUMBER   385
                              FREQUENCY =   28.315344    



                              INCREMENT NUMBER   386
                              FREQUENCY =   28.389081    



                              INCREMENT NUMBER   387
                              FREQUENCY =   28.462819    



                              INCREMENT NUMBER   388
                              FREQUENCY =   28.536557    



                              INCREMENT NUMBER   389
                              FREQUENCY =   28.610295    



                              INCREMENT NUMBER   390
                              FREQUENCY =   28.684033    



                              INCREMENT NUMBER   391
                              FREQUENCY =   28.757771    



                              INCREMENT NUMBER   392
                              FREQUENCY =   28.831509    



                              INCREMENT NUMBER   393
                              FREQUENCY =   28.905247    



                              INCREMENT NUMBER   394
                              FREQUENCY =   28.978984    



                              INCREMENT NUMBER   395
                              FREQUENCY =   29.052722    



                              INCREMENT NUMBER   396
                              FREQUENCY =   29.126460    



                              INCREMENT NUMBER   397
                              FREQUENCY =   29.200198    



                              INCREMENT NUMBER   398
                              FREQUENCY =   29.273936    



                              INCREMENT NUMBER   399
                              FREQUENCY =   29.347674    



                              INCREMENT NUMBER   400
                              FREQUENCY =   29.421412    



                              INCREMENT NUMBER   401
                              FREQUENCY =   29.495150    



                              INCREMENT NUMBER   402
                              FREQUENCY =   29.568887    



                              INCREMENT NUMBER   403
                              FREQUENCY =   29.642625    



                              INCREMENT NUMBER   404
                              FREQUENCY =   29.716363    



                              INCREMENT NUMBER   405
                              FREQUENCY =   29.790101    



                              INCREMENT NUMBER   406
                              FREQUENCY =   29.863839    



                              INCREMENT NUMBER   407
                              FREQUENCY =   29.937577    



                              INCREMENT NUMBER   408
                              FREQUENCY =   30.011315    



                              INCREMENT NUMBER   409
                              FREQUENCY =   30.085053    



                              INCREMENT NUMBER   410
                              FREQUENCY =   30.158790    



                              INCREMENT NUMBER   411
                              FREQUENCY =   30.232528    



                              INCREMENT NUMBER   412
                              FREQUENCY =   30.306266    



                              INCREMENT NUMBER   413
                              FREQUENCY =   30.380004    



                              INCREMENT NUMBER   414
                              FREQUENCY =   30.453742    



                              INCREMENT NUMBER   415
                              FREQUENCY =   30.527480    



                              INCREMENT NUMBER   416
                              FREQUENCY =   30.601218    



                              INCREMENT NUMBER   417
                              FREQUENCY =   30.674956    



                              INCREMENT NUMBER   418
                              FREQUENCY =   30.748693    



                              INCREMENT NUMBER   419
                              FREQUENCY =   30.822431    



                              INCREMENT NUMBER   420
                              FREQUENCY =   30.896169    



                              INCREMENT NUMBER   421
                              FREQUENCY =   30.969907    



                              INCREMENT NUMBER   422
                              FREQUENCY =   31.043645    



                              INCREMENT NUMBER   423
                              FREQUENCY =   31.117383    



                              INCREMENT NUMBER   424
                              FREQUENCY =   31.191121    



                              INCREMENT NUMBER   425
                              FREQUENCY =   31.264859    



                              INCREMENT NUMBER   426
                              FREQUENCY =   31.338596    



                              INCREMENT NUMBER   427
                              FREQUENCY =   31.412334    



                              INCREMENT NUMBER   428
                              FREQUENCY =   31.486072    



                              INCREMENT NUMBER   429
                              FREQUENCY =   31.559810    



                              INCREMENT NUMBER   430
                              FREQUENCY =   31.633548    



                              INCREMENT NUMBER   431
                              FREQUENCY =   31.707286    



                              INCREMENT NUMBER   432
                              FREQUENCY =   31.781024    



                              INCREMENT NUMBER   433
                              FREQUENCY =   31.854762    



                              INCREMENT NUMBER   434
                              FREQUENCY =   31.928499    



                              INCREMENT NUMBER   435
                              FREQUENCY =   32.002237    



                              INCREMENT NUMBER   436
                              FREQUENCY =   32.075975    



                              INCREMENT NUMBER   437
                              FREQUENCY =   32.149713    



                              INCREMENT NUMBER   438
                              FREQUENCY =   32.223451    



                              INCREMENT NUMBER   439
                              FREQUENCY =   32.297189    



                              INCREMENT NUMBER   440
                              FREQUENCY =   32.370927    



                              INCREMENT NUMBER   441
                              FREQUENCY =   32.444665    



                              INCREMENT NUMBER   442
                              FREQUENCY =   32.518402    



                              INCREMENT NUMBER   443
                              FREQUENCY =   32.592140    



                              INCREMENT NUMBER   444
                              FREQUENCY =   32.665878    



                              INCREMENT NUMBER   445
                              FREQUENCY =   32.739616    



                              INCREMENT NUMBER   446
                              FREQUENCY =   32.813354    



                              INCREMENT NUMBER   447
                              FREQUENCY =   32.887092    



                              INCREMENT NUMBER   448
                              FREQUENCY =   32.960830    



                              INCREMENT NUMBER   449
                              FREQUENCY =   33.034568    



                              INCREMENT NUMBER   450
                              FREQUENCY =   33.108305    



                              INCREMENT NUMBER   451
                              FREQUENCY =   33.182043    



                              INCREMENT NUMBER   452
                              FREQUENCY =   33.255781    



                              INCREMENT NUMBER   453
                              FREQUENCY =   33.329519    



                              INCREMENT NUMBER   454
                              FREQUENCY =   33.403257    



                              INCREMENT NUMBER   455
                              FREQUENCY =   33.476995    



                              INCREMENT NUMBER   456
                              FREQUENCY =   33.550733    



                              INCREMENT NUMBER   457
                              FREQUENCY =   33.624471    



                              INCREMENT NUMBER   458
                              FREQUENCY =   33.698208    



                              INCREMENT NUMBER   459
                              FREQUENCY =   33.771946    



                              INCREMENT NUMBER   460
                              FREQUENCY =   33.845684    



                              INCREMENT NUMBER   461
                              FREQUENCY =   33.919422    



                              INCREMENT NUMBER   462
                              FREQUENCY =   33.993160    



                              INCREMENT NUMBER   463
                              FREQUENCY =   34.066898    



                              INCREMENT NUMBER   464
                              FREQUENCY =   34.140636    



                              INCREMENT NUMBER   465
                              FREQUENCY =   34.214374    



                              INCREMENT NUMBER   466
                              FREQUENCY =   34.288111    



                              INCREMENT NUMBER   467
                              FREQUENCY =   34.361849    



                              INCREMENT NUMBER   468
                              FREQUENCY =   34.435587    



                              INCREMENT NUMBER   469
                              FREQUENCY =   34.509325    



                              INCREMENT NUMBER   470
                              FREQUENCY =   34.583063    



                              INCREMENT NUMBER   471
                              FREQUENCY =   34.656801    



                              INCREMENT NUMBER   472
                              FREQUENCY =   34.730539    



                              INCREMENT NUMBER   473
                              FREQUENCY =   34.804277    



                              INCREMENT NUMBER   474
                              FREQUENCY =   34.878014    



                              INCREMENT NUMBER   475
                              FREQUENCY =   34.951752    



                              INCREMENT NUMBER   476
                              FREQUENCY =   35.025490    



                              INCREMENT NUMBER   477
                              FREQUENCY =   35.099228    



                              INCREMENT NUMBER   478
                              FREQUENCY =   35.172966    



                              INCREMENT NUMBER   479
                              FREQUENCY =   35.246704    



                              INCREMENT NUMBER   480
                              FREQUENCY =   35.320442    



                              INCREMENT NUMBER   481
                              FREQUENCY =   35.394180    



                              INCREMENT NUMBER   482
                              FREQUENCY =   35.467917    



                              INCREMENT NUMBER   483
                              FREQUENCY =   35.541655    



                              INCREMENT NUMBER   484
                              FREQUENCY =   35.615393    



                              INCREMENT NUMBER   485
                              FREQUENCY =   35.689131    



                              INCREMENT NUMBER   486
                              FREQUENCY =   35.762869    



                              INCREMENT NUMBER   487
                              FREQUENCY =   35.836607    



                              INCREMENT NUMBER   488
                              FREQUENCY =   35.910345    



                              INCREMENT NUMBER   489
                              FREQUENCY =   35.984082    



                              INCREMENT NUMBER   490
                              FREQUENCY =   36.057820    



                              INCREMENT NUMBER   491
                              FREQUENCY =   36.131558    



                              INCREMENT NUMBER   492
                              FREQUENCY =   36.205296    



                              INCREMENT NUMBER   493
                              FREQUENCY =   36.279034    



                              INCREMENT NUMBER   494
                              FREQUENCY =   36.352772    



                              INCREMENT NUMBER   495
                              FREQUENCY =   36.426510    



                              INCREMENT NUMBER   496
                              FREQUENCY =   36.500248    



                              INCREMENT NUMBER   497
                              FREQUENCY =   36.573985    



                              INCREMENT NUMBER   498
                              FREQUENCY =   36.647723    



                              INCREMENT NUMBER   499
                              FREQUENCY =   36.721461    



                              INCREMENT NUMBER   500
                              FREQUENCY =   36.795199    



                              INCREMENT NUMBER   501
                              FREQUENCY =   36.868937    



                              INCREMENT NUMBER   502
                              FREQUENCY =   36.942675    



[...]



                              INCREMENT NUMBER  1927
                              FREQUENCY =   340.94146    



                              INCREMENT NUMBER  1928
                              FREQUENCY =   340.99443    



                              INCREMENT NUMBER  1929
                              FREQUENCY =   341.04741    



                              INCREMENT NUMBER  1930
                              FREQUENCY =   341.10038    



                              INCREMENT NUMBER  1931
                              FREQUENCY =   341.15335    



                              INCREMENT NUMBER  1932
                              FREQUENCY =   341.20633    



                              INCREMENT NUMBER  1933
                              FREQUENCY =   341.25930    



                              INCREMENT NUMBER  1934
                              FREQUENCY =   341.31228    



                              INCREMENT NUMBER  1935
                              FREQUENCY =   341.36525    



                              INCREMENT NUMBER  1936
                              FREQUENCY =   341.41822    



                              INCREMENT NUMBER  1937
                              FREQUENCY =   341.47120    



                              INCREMENT NUMBER  1938
                              FREQUENCY =   341.52417    



                              INCREMENT NUMBER  1939
                              FREQUENCY =   341.57715    



                              INCREMENT NUMBER  1940
                              FREQUENCY =   341.63012    



                              INCREMENT NUMBER  1941
                              FREQUENCY =   341.68309    



                              INCREMENT NUMBER  1942
                              FREQUENCY =   341.73607    



                              INCREMENT NUMBER  1943
                              FREQUENCY =   341.78904    



                              INCREMENT NUMBER  1944
                              FREQUENCY =   341.84202    



                              INCREMENT NUMBER  1945
                              FREQUENCY =   341.89499    



                              INCREMENT NUMBER  1946
                              FREQUENCY =   341.94796    



                              INCREMENT NUMBER  1947
                              FREQUENCY =   342.00094    



                              INCREMENT NUMBER  1948
                              FREQUENCY =   342.05391    



                              INCREMENT NUMBER  1949
                              FREQUENCY =   342.10689    



                              INCREMENT NUMBER  1950
                              FREQUENCY =   342.15986    



                              INCREMENT NUMBER  1951
                              FREQUENCY =   342.21283    



                              INCREMENT NUMBER  1952
                              FREQUENCY =   342.26581    



                              INCREMENT NUMBER  1953
                              FREQUENCY =   342.31878    



                              INCREMENT NUMBER  1954
                              FREQUENCY =   342.37175    



                              INCREMENT NUMBER  1955
                              FREQUENCY =   342.42473    



                              INCREMENT NUMBER  1956
                              FREQUENCY =   342.47770    



                              INCREMENT NUMBER  1957
                              FREQUENCY =   342.53068    



                              INCREMENT NUMBER  1958
                              FREQUENCY =   342.58365    



                              INCREMENT NUMBER  1959
                              FREQUENCY =   342.63662    



                              INCREMENT NUMBER  1960
                              FREQUENCY =   342.68960    



                              INCREMENT NUMBER  1961
                              FREQUENCY =   342.74257    



                              INCREMENT NUMBER  1962
                              FREQUENCY =   342.79555    



                              INCREMENT NUMBER  1963
                              FREQUENCY =   342.84852    



                              INCREMENT NUMBER  1964
                              FREQUENCY =   342.90149    



                              INCREMENT NUMBER  1965
                              FREQUENCY =   342.95447    



                              INCREMENT NUMBER  1966
                              FREQUENCY =   343.00744    



                              INCREMENT NUMBER  1967
                              FREQUENCY =   343.06042    



                              INCREMENT NUMBER  1968
                              FREQUENCY =   343.11339    



                              INCREMENT NUMBER  1969
                              FREQUENCY =   343.16636    



                              INCREMENT NUMBER  1970
                              FREQUENCY =   343.21934    



                              INCREMENT NUMBER  1971
                              FREQUENCY =   343.27231    



                              INCREMENT NUMBER  1972
                              FREQUENCY =   343.32529    



                              INCREMENT NUMBER  1973
                              FREQUENCY =   343.37826    



                              INCREMENT NUMBER  1974
                              FREQUENCY =   343.43123    



                              INCREMENT NUMBER  1975
                              FREQUENCY =   343.48421    



                              INCREMENT NUMBER  1976
                              FREQUENCY =   343.53718    



                              INCREMENT NUMBER  1977
                              FREQUENCY =   343.59015    



                              INCREMENT NUMBER  1978
                              FREQUENCY =   343.64313    



                              INCREMENT NUMBER  1979
                              FREQUENCY =   343.69610    



                              INCREMENT NUMBER  1980
                              FREQUENCY =   343.74908    



                              INCREMENT NUMBER  1981
                              FREQUENCY =   343.80205    



                              INCREMENT NUMBER  1982
                              FREQUENCY =   343.85502    



                              INCREMENT NUMBER  1983
                              FREQUENCY =   343.90800    



                              INCREMENT NUMBER  1984
                              FREQUENCY =   343.96097    



                              INCREMENT NUMBER  1985
                              FREQUENCY =   344.01395    



                              INCREMENT NUMBER  1986
                              FREQUENCY =   344.06692    



                              INCREMENT NUMBER  1987
                              FREQUENCY =   344.11989    



                              INCREMENT NUMBER  1988
                              FREQUENCY =   344.17287    



                              INCREMENT NUMBER  1989
                              FREQUENCY =   344.22584    



                              INCREMENT NUMBER  1990
                              FREQUENCY =   344.27882    



                              INCREMENT NUMBER  1991
                              FREQUENCY =   344.33179    



                              INCREMENT NUMBER  1992
                              FREQUENCY =   344.38476    



                              INCREMENT NUMBER  1993
                              FREQUENCY =   344.43774    



                              INCREMENT NUMBER  1994
                              FREQUENCY =   344.49071    



                              INCREMENT NUMBER  1995
                              FREQUENCY =   344.54369    



                              INCREMENT NUMBER  1996
                              FREQUENCY =   344.59666    



                              INCREMENT NUMBER  1997
                              FREQUENCY =   344.64963    



                              INCREMENT NUMBER  1998
                              FREQUENCY =   344.70261    



                              INCREMENT NUMBER  1999
                              FREQUENCY =   344.75558    



                              INCREMENT NUMBER  2000
                              FREQUENCY =   344.80856    



                              INCREMENT NUMBER  2001
                              FREQUENCY =   344.86153    



                              INCREMENT NUMBER  2002
                              FREQUENCY =   344.91450    



                              INCREMENT NUMBER  2003
                              FREQUENCY =   344.96748    



                              INCREMENT NUMBER  2004
                              FREQUENCY =   345.02045    



                              INCREMENT NUMBER  2005
                              FREQUENCY =   345.07342    



                              INCREMENT NUMBER  2006
                              FREQUENCY =   345.12640    



                              INCREMENT NUMBER  2007
                              FREQUENCY =   345.17937    



                              INCREMENT NUMBER  2008
                              FREQUENCY =   345.23235    



                              INCREMENT NUMBER  2009
                              FREQUENCY =   345.28532    



                              INCREMENT NUMBER  2010
                              FREQUENCY =   345.33829    



                              INCREMENT NUMBER  2011
                              FREQUENCY =   345.39127    



                              INCREMENT NUMBER  2012
                              FREQUENCY =   345.44424    



                              INCREMENT NUMBER  2013
                              FREQUENCY =   345.49722    



                              INCREMENT NUMBER  2014
                              FREQUENCY =   345.55019    



                              INCREMENT NUMBER  2015
                              FREQUENCY =   345.60316    



                              INCREMENT NUMBER  2016
                              FREQUENCY =   345.65614    



                              INCREMENT NUMBER  2017
                              FREQUENCY =   345.70911    



                              INCREMENT NUMBER  2018
                              FREQUENCY =   345.76209    



                              INCREMENT NUMBER  2019
                              FREQUENCY =   345.81506    



                              INCREMENT NUMBER  2020
                              FREQUENCY =   345.86803    



                              INCREMENT NUMBER  2021
                              FREQUENCY =   345.92101    



                              INCREMENT NUMBER  2022
                              FREQUENCY =   345.97398    



                              INCREMENT NUMBER  2023
                              FREQUENCY =   346.02696    



                              INCREMENT NUMBER  2024
                              FREQUENCY =   346.07993    



                              INCREMENT NUMBER  2025
                              FREQUENCY =   346.13290    



                              INCREMENT NUMBER  2026
                              FREQUENCY =   346.18588    



                              INCREMENT NUMBER  2027
                              FREQUENCY =   346.23885    



                              INCREMENT NUMBER  2028
                              FREQUENCY =   346.29183    



                              INCREMENT NUMBER  2029
                              FREQUENCY =   346.34480    



                              INCREMENT NUMBER  2030
                              FREQUENCY =   346.39777    



                              INCREMENT NUMBER  2031
                              FREQUENCY =   346.45075    



                              INCREMENT NUMBER  2032
                              FREQUENCY =   346.50372    



                              INCREMENT NUMBER  2033
                              FREQUENCY =   346.55669    



                              INCREMENT NUMBER  2034
                              FREQUENCY =   346.60967    



                              INCREMENT NUMBER  2035
                              FREQUENCY =   346.66264    



                              INCREMENT NUMBER  2036
                              FREQUENCY =   346.71562    



                              INCREMENT NUMBER  2037
                              FREQUENCY =   346.76859    



                              INCREMENT NUMBER  2038
                              FREQUENCY =   346.82156    



                              INCREMENT NUMBER  2039
                              FREQUENCY =   346.87454    



                              INCREMENT NUMBER  2040
                              FREQUENCY =   346.92751    



                              INCREMENT NUMBER  2041
                              FREQUENCY =   346.98049    



                              INCREMENT NUMBER  2042
                              FREQUENCY =   347.03346    



                              INCREMENT NUMBER  2043
                              FREQUENCY =   347.08643    



                              INCREMENT NUMBER  2044
                              FREQUENCY =   347.13941    



                              INCREMENT NUMBER  2045
                              FREQUENCY =   347.19238    



                              INCREMENT NUMBER  2046
                              FREQUENCY =   347.24536    



                              INCREMENT NUMBER  2047
                              FREQUENCY =   347.29833    



                              INCREMENT NUMBER  2048
                              FREQUENCY =   347.35130    



                              INCREMENT NUMBER  2049
                              FREQUENCY =   347.40428    



                              INCREMENT NUMBER  2050
                              FREQUENCY =   347.45725    



                              INCREMENT NUMBER  2051
                              FREQUENCY =   347.51023    



                              INCREMENT NUMBER  2052
                              FREQUENCY =   347.56320    



                              INCREMENT NUMBER  2053
                              FREQUENCY =   347.61617    



                              INCREMENT NUMBER  2054
                              FREQUENCY =   347.66915    



                              INCREMENT NUMBER  2055
                              FREQUENCY =   347.72212    



                              INCREMENT NUMBER  2056
                              FREQUENCY =   347.77510    



                              INCREMENT NUMBER  2057
                              FREQUENCY =   347.82807    



                              INCREMENT NUMBER  2058
                              FREQUENCY =   347.88104    



                              INCREMENT NUMBER  2059
                              FREQUENCY =   347.93402    



                              INCREMENT NUMBER  2060
                              FREQUENCY =   347.98699    



                              INCREMENT NUMBER  2061
                              FREQUENCY =   348.03996    



                              INCREMENT NUMBER  2062
                              FREQUENCY =   348.09294    



                              INCREMENT NUMBER  2063
                              FREQUENCY =   348.14591    



                              INCREMENT NUMBER  2064
                              FREQUENCY =   348.19889    



                              INCREMENT NUMBER  2065
                              FREQUENCY =   348.25186    



                              INCREMENT NUMBER  2066
                              FREQUENCY =   348.30483    



                              INCREMENT NUMBER  2067
                              FREQUENCY =   348.35781    



                              INCREMENT NUMBER  2068
                              FREQUENCY =   348.41078    



                              INCREMENT NUMBER  2069
                              FREQUENCY =   348.46376    



                              INCREMENT NUMBER  2070
                              FREQUENCY =   348.51673    



                              INCREMENT NUMBER  2071
                              FREQUENCY =   348.56970    



                              INCREMENT NUMBER  2072
                              FREQUENCY =   348.62268    



                              INCREMENT NUMBER  2073
                              FREQUENCY =   348.67565    



                              INCREMENT NUMBER  2074
                              FREQUENCY =   348.72863    



                              INCREMENT NUMBER  2075
                              FREQUENCY =   348.78160    



                              INCREMENT NUMBER  2076
                              FREQUENCY =   348.83457    



                              INCREMENT NUMBER  2077
                              FREQUENCY =   348.88755    



                              INCREMENT NUMBER  2078
                              FREQUENCY =   348.94052    



                              INCREMENT NUMBER  2079
                              FREQUENCY =   348.99350    



                              INCREMENT NUMBER  2080
                              FREQUENCY =   349.04647    



                              INCREMENT NUMBER  2081
                              FREQUENCY =   349.09944    



                              INCREMENT NUMBER  2082
                              FREQUENCY =   349.15242    



                              INCREMENT NUMBER  2083
                              FREQUENCY =   349.20539    



                              INCREMENT NUMBER  2084
                              FREQUENCY =   349.25837    



                              INCREMENT NUMBER  2085
                              FREQUENCY =   349.31134    



                              INCREMENT NUMBER  2086
                              FREQUENCY =   349.36431    



                              INCREMENT NUMBER  2087
                              FREQUENCY =   349.41729    



                              INCREMENT NUMBER  2088
                              FREQUENCY =   349.47026    



                              INCREMENT NUMBER  2089
                              FREQUENCY =   349.52323    



                              INCREMENT NUMBER  2090
                              FREQUENCY =   349.57621    



                              INCREMENT NUMBER  2091
                              FREQUENCY =   349.62918    



                              INCREMENT NUMBER  2092
                              FREQUENCY =   349.68216    



                              INCREMENT NUMBER  2093
                              FREQUENCY =   349.73513    



                              INCREMENT NUMBER  2094
                              FREQUENCY =   349.78810    



                              INCREMENT NUMBER  2095
                              FREQUENCY =   349.84108    



                              INCREMENT NUMBER  2096
                              FREQUENCY =   349.89405    



                              INCREMENT NUMBER  2097
                              FREQUENCY =   349.94703    



                              INCREMENT NUMBER  2098
                              FREQUENCY =   350.00000    



          THE ANALYSIS HAS BEEN COMPLETED



                              ANALYSIS COMPLETE
                              WITH      2 WARNING MESSAGES ON THE DAT FILE



     JOB TIME SUMMARY
       USER TIME (SEC)      =   17.700    
       SYSTEM TIME (SEC)    =   12.100    
       TOTAL CPU TIME (SEC) =   29.800    
       WALLCLOCK TIME (SEC) =         42
