1

   Abaqus 6.14-1                                  Date 26-Jan-2016   Time 19:47:28
   For use by Supplied By SSQ under license from Dassault Systemes or its subsidiary.

                                                                                 
 freq analysis                                                                   
 STEP    1     INCREMENT     1     STEP TIME    0.00    


                        S T E P       1     C A L C U L A T I O N   O F   E I G E N V A L U E S

                                            F O R   N A T U R A L   F R E Q U E N C I E S



          freq analysis                                                                   

     THE SUBSPACE ITERATION METHOD IS USED FOR THIS ANALYSIS
     NUMBER OF EIGENVALUES                      3
     HIGHEST FREQUENCY OF INTEREST                  1.00000E+18
     MAXIMUM NUMBER OF ITERATIONS                     30
     NUMBER OF VECTORS IN ITERATION                    6
     THE EIGENVECTORS ARE SCALED SO THAT 
      THE LARGEST DISPLACEMENT ENTRY IN EACH VECTOR
      IS UNITY

     THIS IS A LINEAR PERTURBATION STEP.
     ALL LOADS ARE DEFINED AS CHANGE IN LOAD TO THE REFERENCE STATE

     EXTRAPOLATION WILL NOT BE USED

     CHARACTERISTIC ELEMENT LENGTH     5.000E-02

     DETAILS REGARDING ACTUAL SOLUTION WAVEFRONT REQUESTED

     DETAILED OUTPUT OF DIAGNOSTICS TO DATABASE REQUESTED

     PRINT OF INCREMENT NUMBER, TIME, ETC., TO THE MESSAGE FILE EVERY     1  INCREMENTS

     COLLECTING MODEL CONSTRAINT INFORMATION FOR OVERCONSTRAINT CHECKS

     COLLECTING STEP CONSTRAINT INFORMATION FOR OVERCONSTRAINT CHECKS

  NUMBER OF EQUATIONS =       63     NUMBER OF FLOATING PT. OPERATIONS =  3.25E+03

     CHECK POINT   START OF SOLVER    

     CHECK POINT  END OF SOLVER       

       ELAPSED USER TIME (SEC)      =   0.0000    
       ELAPSED SYSTEM TIME (SEC)    =   0.0000    
       ELAPSED TOTAL CPU TIME (SEC) =   0.0000    
       ELAPSED WALLCLOCK TIME (SEC) =          0

  NUMBER OF EQUATIONS =       63     NUMBER OF FLOATING PT. OPERATIONS =  3.25E+03

     CHECK POINT   START OF SOLVER    

     CHECK POINT  END OF SOLVER       

       ELAPSED USER TIME (SEC)      =  0.10000    
       ELAPSED SYSTEM TIME (SEC)    =   0.0000    
       ELAPSED TOTAL CPU TIME (SEC) =  0.10000    
       ELAPSED WALLCLOCK TIME (SEC) =          0

          ITERATION  1  CURRENT ESTIMATES OF EIGENVALUES

              1   65069.        2  2.50736E+06    3  2.15289E+07    4  6.78254E+07    5  1.13301E+08
              6  5.46076E+08

  NUMBER OF EQUATIONS =       63     NUMBER OF FLOATING PT. OPERATIONS =  3.25E+03

     CHECK POINT   START OF SOLVER    

     CHECK POINT  END OF SOLVER       

       ELAPSED USER TIME (SEC)      =   0.0000    
       ELAPSED SYSTEM TIME (SEC)    =   0.0000    
       ELAPSED TOTAL CPU TIME (SEC) =   0.0000    
       ELAPSED WALLCLOCK TIME (SEC) =          1

          ITERATION  2  CURRENT ESTIMATES OF EIGENVALUES

              1   65060.        2  2.48511E+06    3  1.87299E+07    4  6.27233E+07    5  6.85799E+07
              6  1.90736E+08

  NUMBER OF EQUATIONS =       63     NUMBER OF FLOATING PT. OPERATIONS =  3.25E+03

     CHECK POINT   START OF SOLVER    

     CHECK POINT  END OF SOLVER       

       ELAPSED USER TIME (SEC)      =   0.0000    
       ELAPSED SYSTEM TIME (SEC)    =   0.0000    
       ELAPSED TOTAL CPU TIME (SEC) =   0.0000    
       ELAPSED WALLCLOCK TIME (SEC) =          0

          ITERATION  3  CURRENT ESTIMATES OF EIGENVALUES

              1   65060.        2  2.48511E+06    3  1.87275E+07    4  6.26776E+07    5  6.81783E+07
              6  1.75810E+08

          THE FIRST    2  EIGENVALUES HAVE CONVERGED

  NUMBER OF EQUATIONS =       63     NUMBER OF FLOATING PT. OPERATIONS =  3.25E+03

     CHECK POINT   START OF SOLVER    

     CHECK POINT  END OF SOLVER       

       ELAPSED USER TIME (SEC)      =   0.0000    
       ELAPSED SYSTEM TIME (SEC)    =   0.0000    
       ELAPSED TOTAL CPU TIME (SEC) =   0.0000    
       ELAPSED WALLCLOCK TIME (SEC) =          0

          ITERATION  4  CURRENT ESTIMATES OF EIGENVALUES

              1   65060.        2  2.48511E+06    3  1.87275E+07    4  6.26767E+07    5  6.81722E+07
              6  1.74754E+08

          THE FIRST    3  EIGENVALUES HAVE CONVERGED
1

   Abaqus 6.14-1                                  Date 26-Jan-2016   Time 19:47:29
   For use by Supplied By SSQ under license from Dassault Systemes or its subsidiary.

                                                                                 
                                                                                 
 STEP    2     INCREMENT     1     STEP TIME    0.00    


                        S T E P       2     S T E A D Y   S T A T E   A N A L Y S I S                


                                                                                          
          FULL STRUCTURAL-ACOUSTIC COUPLING IS USED IN THIS
          FORCED RESPONSE ANALYSIS
          FREQUENCY RANGE DEFINITIONS (CYCLES/TIME)
                LOW         HIGH        POINTS        BIAS     SCALE FACTOR  TYPE OF SCALING


              1.505E-08     350.           20         1.00         1.00       Linear          
          INTERVAL WILL BE DIVIDED FIRST USING EIGENFREQUENCIES.


     THIS IS A LINEAR PERTURBATION STEP.
     ALL LOADS ARE DEFINED AS CHANGE IN LOAD TO THE REFERENCE STATE

     EXTRAPOLATION WILL NOT BE USED

     CHARACTERISTIC ELEMENT LENGTH     5.000E-02

     DETAILS REGARDING ACTUAL SOLUTION WAVEFRONT REQUESTED

     DETAILED OUTPUT OF DIAGNOSTICS TO DATABASE REQUESTED

     PRINT OF INCREMENT NUMBER, TIME, ETC., TO THE MESSAGE FILE EVERY     1  INCREMENTS


                              INCREMENT NUMBER     1
                              FREQUENCY =  1.50486611E-08


 ITERATION SUMMARY FOR THE INCREMENT:   0 TOTAL ITERATIONS, OF WHICH
   0 ARE SEVERE DISCONTINUITY ITERATIONS AND  0 ARE EQUILIBRIUM ITERATIONS.


                              INCREMENT NUMBER     2
                              FREQUENCY =   2.1366087    


 ITERATION SUMMARY FOR THE INCREMENT:   0 TOTAL ITERATIONS, OF WHICH
   0 ARE SEVERE DISCONTINUITY ITERATIONS AND  0 ARE EQUILIBRIUM ITERATIONS.


                              INCREMENT NUMBER     3
                              FREQUENCY =   4.2732174    


 ITERATION SUMMARY FOR THE INCREMENT:   0 TOTAL ITERATIONS, OF WHICH
   0 ARE SEVERE DISCONTINUITY ITERATIONS AND  0 ARE EQUILIBRIUM ITERATIONS.


                              INCREMENT NUMBER     4
                              FREQUENCY =   6.4098261    


 ITERATION SUMMARY FOR THE INCREMENT:   0 TOTAL ITERATIONS, OF WHICH
   0 ARE SEVERE DISCONTINUITY ITERATIONS AND  0 ARE EQUILIBRIUM ITERATIONS.


                              INCREMENT NUMBER     5
                              FREQUENCY =   8.5464347    


 ITERATION SUMMARY FOR THE INCREMENT:   0 TOTAL ITERATIONS, OF WHICH
   0 ARE SEVERE DISCONTINUITY ITERATIONS AND  0 ARE EQUILIBRIUM ITERATIONS.


                              INCREMENT NUMBER     6
                              FREQUENCY =   10.683043    


 ITERATION SUMMARY FOR THE INCREMENT:   0 TOTAL ITERATIONS, OF WHICH
   0 ARE SEVERE DISCONTINUITY ITERATIONS AND  0 ARE EQUILIBRIUM ITERATIONS.


                              INCREMENT NUMBER     7
                              FREQUENCY =   12.819652    


 ITERATION SUMMARY FOR THE INCREMENT:   0 TOTAL ITERATIONS, OF WHICH
   0 ARE SEVERE DISCONTINUITY ITERATIONS AND  0 ARE EQUILIBRIUM ITERATIONS.


                              INCREMENT NUMBER     8
                              FREQUENCY =   14.956261    


 ITERATION SUMMARY FOR THE INCREMENT:   0 TOTAL ITERATIONS, OF WHICH
   0 ARE SEVERE DISCONTINUITY ITERATIONS AND  0 ARE EQUILIBRIUM ITERATIONS.


                              INCREMENT NUMBER     9
                              FREQUENCY =   17.092869    


 ITERATION SUMMARY FOR THE INCREMENT:   0 TOTAL ITERATIONS, OF WHICH
   0 ARE SEVERE DISCONTINUITY ITERATIONS AND  0 ARE EQUILIBRIUM ITERATIONS.


                              INCREMENT NUMBER    10
                              FREQUENCY =   19.229478    


 ITERATION SUMMARY FOR THE INCREMENT:   0 TOTAL ITERATIONS, OF WHICH
   0 ARE SEVERE DISCONTINUITY ITERATIONS AND  0 ARE EQUILIBRIUM ITERATIONS.


                              INCREMENT NUMBER    11
                              FREQUENCY =   21.366087    


 ITERATION SUMMARY FOR THE INCREMENT:   0 TOTAL ITERATIONS, OF WHICH
   0 ARE SEVERE DISCONTINUITY ITERATIONS AND  0 ARE EQUILIBRIUM ITERATIONS.


                              INCREMENT NUMBER    12
                              FREQUENCY =   23.502695    


 ITERATION SUMMARY FOR THE INCREMENT:   0 TOTAL ITERATIONS, OF WHICH
   0 ARE SEVERE DISCONTINUITY ITERATIONS AND  0 ARE EQUILIBRIUM ITERATIONS.


                              INCREMENT NUMBER    13
                              FREQUENCY =   25.639304    


 ITERATION SUMMARY FOR THE INCREMENT:   0 TOTAL ITERATIONS, OF WHICH
   0 ARE SEVERE DISCONTINUITY ITERATIONS AND  0 ARE EQUILIBRIUM ITERATIONS.


                              INCREMENT NUMBER    14
                              FREQUENCY =   27.775913    


 ITERATION SUMMARY FOR THE INCREMENT:   0 TOTAL ITERATIONS, OF WHICH
   0 ARE SEVERE DISCONTINUITY ITERATIONS AND  0 ARE EQUILIBRIUM ITERATIONS.


                              INCREMENT NUMBER    15
                              FREQUENCY =   29.912522    


 ITERATION SUMMARY FOR THE INCREMENT:   0 TOTAL ITERATIONS, OF WHICH
   0 ARE SEVERE DISCONTINUITY ITERATIONS AND  0 ARE EQUILIBRIUM ITERATIONS.


                              INCREMENT NUMBER    16
                              FREQUENCY =   32.049130    


 ITERATION SUMMARY FOR THE INCREMENT:   0 TOTAL ITERATIONS, OF WHICH
   0 ARE SEVERE DISCONTINUITY ITERATIONS AND  0 ARE EQUILIBRIUM ITERATIONS.


                              INCREMENT NUMBER    17
                              FREQUENCY =   34.185739    


 ITERATION SUMMARY FOR THE INCREMENT:   0 TOTAL ITERATIONS, OF WHICH
   0 ARE SEVERE DISCONTINUITY ITERATIONS AND  0 ARE EQUILIBRIUM ITERATIONS.


                              INCREMENT NUMBER    18
                              FREQUENCY =   36.322348    


 ITERATION SUMMARY FOR THE INCREMENT:   0 TOTAL ITERATIONS, OF WHICH
   0 ARE SEVERE DISCONTINUITY ITERATIONS AND  0 ARE EQUILIBRIUM ITERATIONS.


                              INCREMENT NUMBER    19
                              FREQUENCY =   38.458956    


 ITERATION SUMMARY FOR THE INCREMENT:   0 TOTAL ITERATIONS, OF WHICH
   0 ARE SEVERE DISCONTINUITY ITERATIONS AND  0 ARE EQUILIBRIUM ITERATIONS.


                              INCREMENT NUMBER    20
                              FREQUENCY =   40.595565    


 ITERATION SUMMARY FOR THE INCREMENT:   0 TOTAL ITERATIONS, OF WHICH
   0 ARE SEVERE DISCONTINUITY ITERATIONS AND  0 ARE EQUILIBRIUM ITERATIONS.


                              INCREMENT NUMBER    21
                              FREQUENCY =   51.663990    


 ITERATION SUMMARY FOR THE INCREMENT:   0 TOTAL ITERATIONS, OF WHICH
   0 ARE SEVERE DISCONTINUITY ITERATIONS AND  0 ARE EQUILIBRIUM ITERATIONS.


                              INCREMENT NUMBER    22
                              FREQUENCY =   62.732415    


 ITERATION SUMMARY FOR THE INCREMENT:   0 TOTAL ITERATIONS, OF WHICH
   0 ARE SEVERE DISCONTINUITY ITERATIONS AND  0 ARE EQUILIBRIUM ITERATIONS.


                              INCREMENT NUMBER    23
                              FREQUENCY =   73.800840    


 ITERATION SUMMARY FOR THE INCREMENT:   0 TOTAL ITERATIONS, OF WHICH
   0 ARE SEVERE DISCONTINUITY ITERATIONS AND  0 ARE EQUILIBRIUM ITERATIONS.


                              INCREMENT NUMBER    24
                              FREQUENCY =   84.869265    


 ITERATION SUMMARY FOR THE INCREMENT:   0 TOTAL ITERATIONS, OF WHICH
   0 ARE SEVERE DISCONTINUITY ITERATIONS AND  0 ARE EQUILIBRIUM ITERATIONS.


                              INCREMENT NUMBER    25
                              FREQUENCY =   95.937690    


 ITERATION SUMMARY FOR THE INCREMENT:   0 TOTAL ITERATIONS, OF WHICH
   0 ARE SEVERE DISCONTINUITY ITERATIONS AND  0 ARE EQUILIBRIUM ITERATIONS.


                              INCREMENT NUMBER    26
                              FREQUENCY =   107.00612    


 ITERATION SUMMARY FOR THE INCREMENT:   0 TOTAL ITERATIONS, OF WHICH
   0 ARE SEVERE DISCONTINUITY ITERATIONS AND  0 ARE EQUILIBRIUM ITERATIONS.


                              INCREMENT NUMBER    27
                              FREQUENCY =   118.07454    


 ITERATION SUMMARY FOR THE INCREMENT:   0 TOTAL ITERATIONS, OF WHICH
   0 ARE SEVERE DISCONTINUITY ITERATIONS AND  0 ARE EQUILIBRIUM ITERATIONS.


                              INCREMENT NUMBER    28
                              FREQUENCY =   129.14297    


 ITERATION SUMMARY FOR THE INCREMENT:   0 TOTAL ITERATIONS, OF WHICH
   0 ARE SEVERE DISCONTINUITY ITERATIONS AND  0 ARE EQUILIBRIUM ITERATIONS.


                              INCREMENT NUMBER    29
                              FREQUENCY =   140.21139    


 ITERATION SUMMARY FOR THE INCREMENT:   0 TOTAL ITERATIONS, OF WHICH
   0 ARE SEVERE DISCONTINUITY ITERATIONS AND  0 ARE EQUILIBRIUM ITERATIONS.


                              INCREMENT NUMBER    30
                              FREQUENCY =   151.27982    


 ITERATION SUMMARY FOR THE INCREMENT:   0 TOTAL ITERATIONS, OF WHICH
   0 ARE SEVERE DISCONTINUITY ITERATIONS AND  0 ARE EQUILIBRIUM ITERATIONS.


                              INCREMENT NUMBER    31
                              FREQUENCY =   162.34824    


 ITERATION SUMMARY FOR THE INCREMENT:   0 TOTAL ITERATIONS, OF WHICH
   0 ARE SEVERE DISCONTINUITY ITERATIONS AND  0 ARE EQUILIBRIUM ITERATIONS.


                              INCREMENT NUMBER    32
                              FREQUENCY =   173.41667    


 ITERATION SUMMARY FOR THE INCREMENT:   0 TOTAL ITERATIONS, OF WHICH
   0 ARE SEVERE DISCONTINUITY ITERATIONS AND  0 ARE EQUILIBRIUM ITERATIONS.


                              INCREMENT NUMBER    33
                              FREQUENCY =   184.48509    


 ITERATION SUMMARY FOR THE INCREMENT:   0 TOTAL ITERATIONS, OF WHICH
   0 ARE SEVERE DISCONTINUITY ITERATIONS AND  0 ARE EQUILIBRIUM ITERATIONS.


                              INCREMENT NUMBER    34
                              FREQUENCY =   195.55352    


 ITERATION SUMMARY FOR THE INCREMENT:   0 TOTAL ITERATIONS, OF WHICH
   0 ARE SEVERE DISCONTINUITY ITERATIONS AND  0 ARE EQUILIBRIUM ITERATIONS.


                              INCREMENT NUMBER    35
                              FREQUENCY =   206.62194    


 ITERATION SUMMARY FOR THE INCREMENT:   0 TOTAL ITERATIONS, OF WHICH
   0 ARE SEVERE DISCONTINUITY ITERATIONS AND  0 ARE EQUILIBRIUM ITERATIONS.


                              INCREMENT NUMBER    36
                              FREQUENCY =   217.69037    


 ITERATION SUMMARY FOR THE INCREMENT:   0 TOTAL ITERATIONS, OF WHICH
   0 ARE SEVERE DISCONTINUITY ITERATIONS AND  0 ARE EQUILIBRIUM ITERATIONS.


                              INCREMENT NUMBER    37
                              FREQUENCY =   228.75879    


 ITERATION SUMMARY FOR THE INCREMENT:   0 TOTAL ITERATIONS, OF WHICH
   0 ARE SEVERE DISCONTINUITY ITERATIONS AND  0 ARE EQUILIBRIUM ITERATIONS.


                              INCREMENT NUMBER    38
                              FREQUENCY =   239.82722    


 ITERATION SUMMARY FOR THE INCREMENT:   0 TOTAL ITERATIONS, OF WHICH
   0 ARE SEVERE DISCONTINUITY ITERATIONS AND  0 ARE EQUILIBRIUM ITERATIONS.


                              INCREMENT NUMBER    39
                              FREQUENCY =   250.89564    


 ITERATION SUMMARY FOR THE INCREMENT:   0 TOTAL ITERATIONS, OF WHICH
   0 ARE SEVERE DISCONTINUITY ITERATIONS AND  0 ARE EQUILIBRIUM ITERATIONS.


                              INCREMENT NUMBER    40
                              FREQUENCY =   256.11166    


 ITERATION SUMMARY FOR THE INCREMENT:   0 TOTAL ITERATIONS, OF WHICH
   0 ARE SEVERE DISCONTINUITY ITERATIONS AND  0 ARE EQUILIBRIUM ITERATIONS.


                              INCREMENT NUMBER    41
                              FREQUENCY =   261.32768    


 ITERATION SUMMARY FOR THE INCREMENT:   0 TOTAL ITERATIONS, OF WHICH
   0 ARE SEVERE DISCONTINUITY ITERATIONS AND  0 ARE EQUILIBRIUM ITERATIONS.


                              INCREMENT NUMBER    42
                              FREQUENCY =   266.54370    


 ITERATION SUMMARY FOR THE INCREMENT:   0 TOTAL ITERATIONS, OF WHICH
   0 ARE SEVERE DISCONTINUITY ITERATIONS AND  0 ARE EQUILIBRIUM ITERATIONS.


                              INCREMENT NUMBER    43
                              FREQUENCY =   271.75972    


 ITERATION SUMMARY FOR THE INCREMENT:   0 TOTAL ITERATIONS, OF WHICH
   0 ARE SEVERE DISCONTINUITY ITERATIONS AND  0 ARE EQUILIBRIUM ITERATIONS.


                              INCREMENT NUMBER    44
                              FREQUENCY =   276.97574    


 ITERATION SUMMARY FOR THE INCREMENT:   0 TOTAL ITERATIONS, OF WHICH
   0 ARE SEVERE DISCONTINUITY ITERATIONS AND  0 ARE EQUILIBRIUM ITERATIONS.


                              INCREMENT NUMBER    45
                              FREQUENCY =   282.19175    


 ITERATION SUMMARY FOR THE INCREMENT:   0 TOTAL ITERATIONS, OF WHICH
   0 ARE SEVERE DISCONTINUITY ITERATIONS AND  0 ARE EQUILIBRIUM ITERATIONS.


                              INCREMENT NUMBER    46
                              FREQUENCY =   287.40777    


 ITERATION SUMMARY FOR THE INCREMENT:   0 TOTAL ITERATIONS, OF WHICH
   0 ARE SEVERE DISCONTINUITY ITERATIONS AND  0 ARE EQUILIBRIUM ITERATIONS.


                              INCREMENT NUMBER    47
                              FREQUENCY =   292.62379    


 ITERATION SUMMARY FOR THE INCREMENT:   0 TOTAL ITERATIONS, OF WHICH
   0 ARE SEVERE DISCONTINUITY ITERATIONS AND  0 ARE EQUILIBRIUM ITERATIONS.


                              INCREMENT NUMBER    48
                              FREQUENCY =   297.83981    


 ITERATION SUMMARY FOR THE INCREMENT:   0 TOTAL ITERATIONS, OF WHICH
   0 ARE SEVERE DISCONTINUITY ITERATIONS AND  0 ARE EQUILIBRIUM ITERATIONS.


                              INCREMENT NUMBER    49
                              FREQUENCY =   303.05583    


 ITERATION SUMMARY FOR THE INCREMENT:   0 TOTAL ITERATIONS, OF WHICH
   0 ARE SEVERE DISCONTINUITY ITERATIONS AND  0 ARE EQUILIBRIUM ITERATIONS.


                              INCREMENT NUMBER    50
                              FREQUENCY =   308.27185    


 ITERATION SUMMARY FOR THE INCREMENT:   0 TOTAL ITERATIONS, OF WHICH
   0 ARE SEVERE DISCONTINUITY ITERATIONS AND  0 ARE EQUILIBRIUM ITERATIONS.


                              INCREMENT NUMBER    51
                              FREQUENCY =   313.48787    


 ITERATION SUMMARY FOR THE INCREMENT:   0 TOTAL ITERATIONS, OF WHICH
   0 ARE SEVERE DISCONTINUITY ITERATIONS AND  0 ARE EQUILIBRIUM ITERATIONS.


                              INCREMENT NUMBER    52
                              FREQUENCY =   318.70389    


 ITERATION SUMMARY FOR THE INCREMENT:   0 TOTAL ITERATIONS, OF WHICH
   0 ARE SEVERE DISCONTINUITY ITERATIONS AND  0 ARE EQUILIBRIUM ITERATIONS.


                              INCREMENT NUMBER    53
                              FREQUENCY =   323.91991    


 ITERATION SUMMARY FOR THE INCREMENT:   0 TOTAL ITERATIONS, OF WHICH
   0 ARE SEVERE DISCONTINUITY ITERATIONS AND  0 ARE EQUILIBRIUM ITERATIONS.


                              INCREMENT NUMBER    54
                              FREQUENCY =   329.13592    


 ITERATION SUMMARY FOR THE INCREMENT:   0 TOTAL ITERATIONS, OF WHICH
   0 ARE SEVERE DISCONTINUITY ITERATIONS AND  0 ARE EQUILIBRIUM ITERATIONS.


                              INCREMENT NUMBER    55
                              FREQUENCY =   334.35194    


 ITERATION SUMMARY FOR THE INCREMENT:   0 TOTAL ITERATIONS, OF WHICH
   0 ARE SEVERE DISCONTINUITY ITERATIONS AND  0 ARE EQUILIBRIUM ITERATIONS.


                              INCREMENT NUMBER    56
                              FREQUENCY =   339.56796    


 ITERATION SUMMARY FOR THE INCREMENT:   0 TOTAL ITERATIONS, OF WHICH
   0 ARE SEVERE DISCONTINUITY ITERATIONS AND  0 ARE EQUILIBRIUM ITERATIONS.


                              INCREMENT NUMBER    57
                              FREQUENCY =   344.78398    


 ITERATION SUMMARY FOR THE INCREMENT:   0 TOTAL ITERATIONS, OF WHICH
   0 ARE SEVERE DISCONTINUITY ITERATIONS AND  0 ARE EQUILIBRIUM ITERATIONS.


                              INCREMENT NUMBER    58
                              FREQUENCY =   350.00000    


 ITERATION SUMMARY FOR THE INCREMENT:   0 TOTAL ITERATIONS, OF WHICH
   0 ARE SEVERE DISCONTINUITY ITERATIONS AND  0 ARE EQUILIBRIUM ITERATIONS.


          THE ANALYSIS HAS BEEN COMPLETED



     ANALYSIS SUMMARY:
     TOTAL OF         59  INCREMENTS
                       0  CUTBACKS IN AUTOMATIC INCREMENTATION
                       5  ITERATIONS INCLUDING CONTACT ITERATIONS IF PRESENT
                       5  PASSES THROUGH THE EQUATION SOLVER OF WHICH 
                       1  INVOLVE MATRIX DECOMPOSITION, INCLUDING
                       0  DECOMPOSITION(S) OF THE MASS MATRIX
                       1  REORDERING OF EQUATIONS TO MINIMIZE WAVEFRONT
                       0  ADDITIONAL RESIDUAL EVALUATIONS FOR LINE SEARCHES
                       0  ADDITIONAL OPERATOR EVALUATIONS FOR LINE SEARCHES
                       1  WARNING MESSAGES DURING USER INPUT PROCESSING
                       0  WARNING MESSAGES DURING ANALYSIS
                       0  ANALYSIS WARNINGS ARE NUMERICAL PROBLEM MESSAGES
                       0  ANALYSIS WARNINGS ARE NEGATIVE EIGENVALUE MESSAGES
                       0  ERROR MESSAGES



     JOB TIME SUMMARY
       USER TIME (SEC)      =  0.40000    
       SYSTEM TIME (SEC)    =  0.30000    
       TOTAL CPU TIME (SEC) =  0.70000    
       WALLCLOCK TIME (SEC) =          2
