 Abaqus/Standard 6.14-1                  DATE 26-Jan-2016 TIME 19:47:29
 SUMMARY OF JOB INFORMATION:
 STEP  INC ATT SEVERE EQUIL TOTAL  TOTAL      STEP       INC OF       DOF    IF
               DISCON ITERS ITERS  TIME/    TIME/LPF    TIME/LPF    MONITOR RIKS
               ITERS               FREQ
   1     1   1     0     0     0  0.000      1.00e-036  1.000e-036
   2     1                        1.50e-008
   2     2                        2.14     
   2     3                        4.27     
   2     4                        6.41     
   2     5                        8.55     
   2     6                        10.7     
   2     7                        12.8     
   2     8                        15.0     
   2     9                        17.1     
   2    10                        19.2     
   2    11                        21.4     
   2    12                        23.5     
   2    13                        25.6     
   2    14                        27.8     
   2    15                        29.9     
   2    16                        32.0     
   2    17                        34.2     
   2    18                        36.3     
   2    19                        38.5     
   2    20                        40.6     
   2    21                        51.7     
   2    22                        62.7     
   2    23                        73.8     
   2    24                        84.9     
   2    25                        95.9     
   2    26                        107.     
   2    27                        118.     
   2    28                        129.     
   2    29                        140.     
   2    30                        151.     
   2    31                        162.     
   2    32                        173.     
   2    33                        184.     
   2    34                        196.     
   2    35                        207.     
   2    36                        218.     
   2    37                        229.     
   2    38                        240.     
   2    39                        251.     
   2    40                        256.     
   2    41                        261.     
   2    42                        267.     
   2    43                        272.     
   2    44                        277.     
   2    45                        282.     
   2    46                        287.     
   2    47                        293.     
   2    48                        298.     
   2    49                        303.     
   2    50                        308.     
   2    51                        313.     
   2    52                        319.     
   2    53                        324.     
   2    54                        329.     
   2    55                        334.     
   2    56                        340.     
   2    57                        345.     
   2    58                        350.     
                          
 THE ANALYSIS HAS COMPLETED SUCCESSFULLY
