$
$ file random-freq.dat
$
sol 111
$
CEND
$ 
TITLE = Plate subjected to pressure and concentrated load.
ECHO = NONE
Random = 101
line   = 99999
$
set 5 = 28
   SDAMPING = 1
   METHOD = 1
   FREQUENCY = 1
   SPC = 1
   ACCELERATION(plot,rprint,psdf)=5
SUBCASE 1
   SUBTITLE=Applied Pressure
   DLOAD = 11
SUBCASE 2
   SUBTITLE=Applied Load at Tip
   DLOAD = 12
Output (XYOUT)
xgrid = yes
ygrid = yes
xlog = no
ylog = no
xtitle = Time (sec)
ytitle = Acceleration Auto Corrolation Node 55(Tz)
xyplot xyprint acce auto / 55(T3) 
Xlog = yes
Ylog = yes
Xmin = 10.
Xmax = 1000.
$
xtitle = Freq (Hz)
Ytitle = Acceleration PSDF Node 28(Tz)
XYplot Xyprint ACCE PSDF / 28(T3)
$
BEGIN BULK
PARAM    POST    0
PARAM    WTMASS .002589
PARAM    GRDPNT  0
PARAM,NOCOMPS,-1
PARAM   PRTMAXIM YES
FREQ2    1      10.     1000.    300
FREQ4    1      10.     1000.   .1       3
Freq, 1, 20., 30., 100., 500., 1000.
TABDMP1  1       CRIT
        .1      .03     2000.   .03      ENDT
EIGRL    1      -.1     2000.            0
$
RLOAD1   11      4                       1
$
$ Unit Pressure 
$
PLOAD4   4       1      -1.                              THRU    40
$
RLOAD1   12      5                       1
$
$ Unit Nodal Force
$
FORCE    5       11      0      1.       0.      0.     1.
$
$ Constant Load Table
TABLED1  1
         0.     1.      1000.   1.       ENDT
$
$ Random Input
$
RANDPS,101,1,1,1.,0.,200022
RANDPS,101,2,2,1.,0.,300022
RANDPS,101,1,2,1.,0.,400011
RANDPS,101,1,2,0.,1.,500011
$
$ PSD auto-press
$
TABRND1,  200022,log,log,,,,,,+
+, 10.00, 0.100, 20.00, 0.100, 30.00, 1.000, 100.0, 1.000,
+, 500.0, 0.100, 1000., 0.100, endt
$
$ PSD auto-force
$
TABRND1,  300022,log,log,,,,,,+
+, 10.00, 0.500, 20.00, 0.500, 30.00, 2.500, 100.0, 2.500,
+, 500.0, 2.500, 1000.,1.00-6, endt
$
$ PSD Cross-Real
$
TABRND1,  400011,linear,linear,,,,,,+
+, 10.0, -0.09962, 20.0,-0.09962, 100.,-0.49810, 500., 0.07071,
+, 1000.,   1.0-6, endt
$
$ PSD Cross-Imag
$
TABRND1,  500011,linear,linear,,,,,,+
+, 10.0, 0.00782, 20.0, 0.04358, 100., 0.04358, 500.,-0.07071,
+, 1000.,  1.0-6, endt
$
Randt1, 101,  2000, 0., 0.10
$
SPC1     1       12345   1       12      23      34      45
$
PSHELL   1       1      .1       1               1
$ 
CQUAD4   1       1       1       2       13      12      0.      0.
CQUAD4   2       1       2       3       14      13      0.      0.
CQUAD4   3       1       3       4       15      14      0.      0.
CQUAD4   4       1       4       5       16      15      0.      0.
CQUAD4   5       1       5       6       17      16      0.      0.
CQUAD4   6       1       6       7       18      17      0.      0.
CQUAD4   7       1       7       8       19      18      0.      0.
CQUAD4   8       1       8       9       20      19      0.      0.
CQUAD4   9       1       9       10      21      20      0.      0.
CQUAD4   10      1       10      11      22      21      0.      0.
CQUAD4   11      1       12      13      24      23      0.      0.
CQUAD4   12      1       13      14      25      24      0.      0.
CQUAD4   13      1       14      15      26      25      0.      0.
CQUAD4   14      1       15      16      27      26      0.      0.
CQUAD4   15      1       16      17      28      27      0.      0.
CQUAD4   16      1       17      18      29      28      0.      0.
CQUAD4   17      1       18      19      30      29      0.      0.
CQUAD4   18      1       19      20      31      30      0.      0.
CQUAD4   19      1       20      21      32      31      0.      0.
CQUAD4   20      1       21      22      33      32      0.      0.
$ ... 20 like lines cut
$
MAT1     1      3.+7    1.1538+7.3      .282
$
GRID     1               0.      0.      0.
GRID     2              .5       0.      0.
GRID     3              1.       0.      0.
GRID     4              1.5      0.      0.
GRID     5              2.       0.      0.
GRID     6              2.5      0.      0.
GRID     7              3.       0.      0.
GRID     8              3.5      0.      0.
GRID     9              4.       0.      0.
GRID     10             4.5      0.      0.
GRID     11             5.       0.      0.
GRID     12              0.     .5       0.
GRID     13             .5      .5       0.
GRID     14             1.      .5       0.
GRID     15             1.5     .5       0.
GRID     16             2.      .5       0.
GRID     17             2.5     .5       0.
GRID     18             3.      .5       0.
GRID     19             3.5     .5       0.
GRID     20             4.      .5       0.
$ ... 35 like lines cut
$ 
ENDDATA

