 Abaqus/Standard 6.14-1                  DATE 27-Jan-2016 TIME 16:23:25
 SUMMARY OF JOB INFORMATION:
 STEP  INC ATT SEVERE EQUIL TOTAL  TOTAL      STEP       INC OF       DOF    IF
               DISCON ITERS ITERS  TIME/    TIME/LPF    TIME/LPF    MONITOR RIKS
               ITERS               FREQ
   1     1   1     0     1     1  1.00       1.00       1.000     
   2     1   1     0     0     0  1.00       1.00e-036  1.000e-036
   3     1                        1.50e-008
   3     2                        0.0581   
   3     3                        0.116    
   3     4                        0.174    
   3     5                        0.232    
   3     6                        0.291    
   3     7                        0.349    
   3     8                        0.407    
   3     9                        0.465    
   3    10                        0.523    
   3    11                        0.581    
   3    12                        0.639    
   3    13                        0.697    
   3    14                        0.756    
   3    15                        0.814    
   3    16                        0.872    
   3    17                        0.930    
   3    18                        0.988    
   3    19                        1.05     
   3    20                        1.10     
   3    21                        1.16     
   3    22                        1.22     
   3    23                        1.28     
   3    24                        1.34     
   3    25                        1.39     
   3    26                        1.45     
   3    27                        1.51     
   3    28                        1.57     
   3    29                        1.63     
   3    30                        1.69     
   3    31                        1.74     
   3    32                        1.80     
   3    33                        1.86     
   3    34                        1.92     
   3    35                        1.98     
   3    36                        2.03     
   3    37                        2.09     
   3    38                        2.15     
   3    39                        2.21     
   3    40                        2.27     
   3    41                        2.32     
   3    42                        2.38     
   3    43                        2.44     
   3    44                        2.50     
   3    45                        2.56     
   3    46                        2.62     
   3    47                        2.67     
   3    48                        2.73     
   3    49                        2.79     
   3    50                        2.85     
   3    51                        2.91     
   3    52                        2.96     
   3    53                        3.02     
   3    54                        3.08     
   3    55                        3.14     
   3    56                        3.20     
   3    57                        3.25     
   3    58                        3.31     
   3    59                        3.37     
   3    60                        3.43     
   3    61                        3.49     
   3    62                        3.55     
   3    63                        3.60     
   3    64                        3.66     
   3    65                        3.72     
   3    66                        3.78     
   3    67                        3.84     
   3    68                        3.89     
   3    69                        3.95     
   3    70                        4.01     
   3    71                        4.07     
   3    72                        4.13     
   3    73                        4.18     
   3    74                        4.24     
   3    75                        4.30     
   3    76                        4.36     
   3    77                        4.42     
   3    78                        4.48     
   3    79                        4.53     
   3    80                        4.59     
   3    81                        4.65     
   3    82                        4.71     
   3    83                        4.77     
   3    84                        4.82     
   3    85                        4.88     
   3    86                        4.94     
   3    87                        5.00     
   3    88                        5.06     
   3    89                        5.11     
   3    90                        5.17     
   3    91                        5.23     
   3    92                        5.29     
   3    93                        5.35     
   3    94                        5.41     
   3    95                        5.46     
   3    96                        5.52     
   3    97                        5.58     
   3    98                        5.64     
   3    99                        5.70     
   3   100                        5.75     
   3   101                        5.81     
   3   102                        5.87     
   3   103                        5.93     
   3   104                        5.99     
   3   105                        6.04     
   3   106                        6.10     
   3   107                        6.16     
   3   108                        6.22     
   3   109                        6.28     
   3   110                        6.34     
   3   111                        6.39     
   3   112                        6.45     
   3   113                        6.51     
   3   114                        6.57     
   3   115                        6.63     
   3   116                        6.68     
   3   117                        6.74     
   3   118                        6.80     
   3   119                        6.86     
   3   120                        6.92     
   3   121                        6.97     
   3   122                        7.03     
   3   123                        7.09     
   3   124                        7.15     
   3   125                        7.21     
   3   126                        7.27     
   3   127                        7.32     
   3   128                        7.38     
   3   129                        7.44     
   3   130                        7.50     
   3   131                        7.56     
   3   132                        7.61     
   3   133                        7.67     
   3   134                        7.73     
   3   135                        7.79     
   3   136                        7.85     
   3   137                        7.90     
   3   138                        7.96     
   3   139                        8.02     
   3   140                        8.08     
   3   141                        8.14     
   3   142                        8.20     
   3   143                        8.25     
   3   144                        8.31     
   3   145                        8.37     
   3   146                        8.43     
   3   147                        8.49     
   3   148                        8.54     
   3   149                        8.60     
   3   150                        8.66     
   3   151                        8.72     
   3   152                        8.78     
   3   153                        8.83     
   3   154                        8.89     
   3   155                        8.95     
   3   156                        9.01     
   3   157                        9.07     
   3   158                        9.13     
   3   159                        9.18     
   3   160                        9.24     
   3   161                        9.30     
   3   162                        9.36     
   3   163                        9.42     
   3   164                        9.47     
   3   165                        9.53     
   3   166                        9.59     
   3   167                        9.65     
   3   168                        9.71     
   3   169                        9.76     
   3   170                        9.82     
   3   171                        9.88     
   3   172                        9.94     
   3   173                        10.0     
   3   174                        10.1     
   3   175                        10.1     
   3   176                        10.2     
   3   177                        10.2     
   3   178                        10.3     
   3   179                        10.3     
   3   180                        10.4     
   3   181                        10.5     
   3   182                        10.5     
   3   183                        10.6     
   3   184                        10.6     
   3   185                        10.7     
   3   186                        10.8     
   3   187                        10.8     
   3   188                        10.9     
   3   189                        10.9     
   3   190                        11.0     
   3   191                        11.0     
   3   192                        11.1     
   3   193                        11.2     
   3   194                        11.2     
   3   195                        11.3     
   3   196                        11.3     
   3   197                        11.4     
   3   198                        11.4     
   3   199                        11.5     
   3   200                        11.6     
   3   201                        11.6     
   3   202                        11.7     
   3   203                        11.7     
   3   204                        11.8     
   3   205                        11.9     
   3   206                        11.9     
   3   207                        12.0     
   3   208                        12.0     
   3   209                        12.1     
   3   210                        12.1     
   3   211                        12.2     
   3   212                        12.3     
   3   213                        12.3     
   3   214                        12.4     
   3   215                        12.4     
   3   216                        12.5     
   3   217                        12.6     
   3   218                        12.6     
   3   219                        12.7     
   3   220                        12.7     
   3   221                        12.8     
   3   222                        12.8     
   3   223                        12.9     
   3   224                        13.0     
   3   225                        13.0     
   3   226                        13.1     
   3   227                        13.1     
   3   228                        13.2     
   3   229                        13.3     
   3   230                        13.3     
   3   231                        13.4     
   3   232                        13.4     
   3   233                        13.5     
   3   234                        13.5     
   3   235                        13.6     
   3   236                        13.7     
   3   237                        13.7     
   3   238                        13.8     
   3   239                        13.8     
   3   240                        13.9     
   3   241                        13.9     
   3   242                        14.0     
   3   243                        14.1     
   3   244                        14.1     
   3   245                        14.2     
   3   246                        14.2     
   3   247                        14.3     
   3   248                        14.4     
   3   249                        14.4     
   3   250                        14.5     
   3   251                        14.5     
   3   252                        14.6     
   3   253                        14.6     
   3   254                        14.7     
   3   255                        14.8     
   3   256                        14.8     
   3   257                        14.9     
   3   258                        14.9     
   3   259                        15.0     
   3   260                        15.1     
   3   261                        15.1     
   3   262                        15.2     
   3   263                        15.2     
   3   264                        15.3     
   3   265                        15.3     
   3   266                        15.4     
   3   267                        15.5     
   3   268                        15.5     
   3   269                        15.6     
   3   270                        15.6     
   3   271                        15.7     
   3   272                        15.8     
   3   273                        15.8     
   3   274                        15.9     
   3   275                        15.9     
   3   276                        16.0     
   3   277                        16.0     
   3   278                        16.1     
   3   279                        16.2     
   3   280                        16.2     
   3   281                        16.3     
   3   282                        16.3     
   3   283                        16.4     
   3   284                        16.4     
   3   285                        16.5     
   3   286                        16.6     
   3   287                        16.6     
   3   288                        16.7     
   3   289                        16.7     
   3   290                        16.8     
   3   291                        16.9     
   3   292                        16.9     
   3   293                        17.0     
   3   294                        17.0     
   3   295                        17.1     
   3   296                        17.1     
   3   297                        17.2     
   3   298                        17.3     
   3   299                        17.3     
   3   300                        17.4     
   3   301                        17.4     
   3   302                        17.5     
   3   303                        17.6     
   3   304                        17.6     
   3   305                        17.7     
   3   306                        17.7     
   3   307                        17.8     
   3   308                        17.8     
   3   309                        17.9     
   3   310                        18.0     
   3   311                        18.0     
   3   312                        18.1     
   3   313                        18.1     
   3   314                        18.2     
   3   315                        18.3     
   3   316                        18.3     
   3   317                        18.4     
   3   318                        18.4     
   3   319                        18.5     
   3   320                        18.5     
   3   321                        18.6     
   3   322                        18.7     
   3   323                        18.7     
   3   324                        18.8     
   3   325                        18.8     
   3   326                        18.9     
   3   327                        18.9     
   3   328                        19.0     
   3   329                        19.1     
   3   330                        19.1     
   3   331                        19.2     
   3   332                        19.2     
   3   333                        19.3     
   3   334                        19.4     
   3   335                        19.4     
   3   336                        19.5     
   3   337                        19.5     
   3   338                        19.6     
   3   339                        19.6     
   3   340                        19.7     
   3   341                        19.8     
   3   342                        19.8     
   3   343                        19.9     
   3   344                        19.9     
   3   345                        20.0     
   3   346                        20.1     
   3   347                        20.1     
   3   348                        20.2     
   3   349                        20.2     
   3   350                        20.3     
   3   351                        20.3     
   3   352                        20.4     
   3   353                        20.5     
   3   354                        20.5     
   3   355                        20.6     
   3   356                        20.6     
   3   357                        20.7     
   3   358                        20.7     
   3   359                        20.8     
   3   360                        20.9     
   3   361                        20.9     
   3   362                        21.0     
   3   363                        21.0     
   3   364                        21.1     
   3   365                        21.2     
   3   366                        21.2     
   3   367                        21.3     
   3   368                        21.3     
   3   369                        21.4     
   3   370                        21.4     
   3   371                        21.5     
   3   372                        21.6     
   3   373                        21.6     
   3   374                        21.7     
   3   375                        21.7     
   3   376                        21.8     
   3   377                        21.9     
   3   378                        21.9     
   3   379                        22.0     
   3   380                        22.0     
   3   381                        22.1     
   3   382                        22.1     
   3   383                        22.2     
   3   384                        22.3     
   3   385                        22.3     
   3   386                        22.4     
   3   387                        22.4     
   3   388                        22.5     
   3   389                        22.6     
   3   390                        22.6     
   3   391                        22.7     
   3   392                        22.7     
   3   393                        22.8     
   3   394                        22.8     
   3   395                        22.9     
   3   396                        23.0     
   3   397                        23.0     
   3   398                        23.1     
   3   399                        23.1     
   3   400                        23.2     
   3   401                        23.2     
   3   402                        23.3     
   3   403                        23.4     
   3   404                        23.4     
   3   405                        23.5     
   3   406                        23.5     
   3   407                        23.6     
   3   408                        23.7     
   3   409                        23.7     
   3   410                        23.8     
   3   411                        23.8     
   3   412                        23.9     
   3   413                        23.9     
   3   414                        24.0     
   3   415                        24.1     
   3   416                        24.1     
   3   417                        24.2     
   3   418                        24.2     
   3   419                        24.3     
   3   420                        24.4     
   3   421                        24.4     
   3   422                        24.5     
   3   423                        24.5     
   3   424                        24.6     
   3   425                        24.6     
   3   426                        24.7     
   3   427                        24.8     
   3   428                        24.8     
   3   429                        24.9     
   3   430                        24.9     
   3   431                        25.0     
   3   432                        25.1     
   3   433                        25.1     
   3   434                        25.2     
   3   435                        25.2     
   3   436                        25.3     
   3   437                        25.3     
   3   438                        25.4     
   3   439                        25.5     
   3   440                        25.5     
   3   441                        25.6     
   3   442                        25.6     
   3   443                        25.7     
   3   444                        25.7     
   3   445                        25.8     
   3   446                        25.9     
   3   447                        25.9     
   3   448                        26.0     
   3   449                        26.0     
   3   450                        26.1     
   3   451                        26.2     
   3   452                        26.2     
   3   453                        26.3     
   3   454                        26.3     
   3   455                        26.4     
   3   456                        26.4     
   3   457                        26.5     
   3   458                        26.6     
   3   459                        26.6     
   3   460                        26.7     
   3   461                        26.7     
   3   462                        26.8     
   3   463                        26.9     
   3   464                        26.9     
   3   465                        27.0     
   3   466                        27.0     
   3   467                        27.1     
   3   468                        27.1     
   3   469                        27.2     
   3   470                        27.3     
   3   471                        27.3     
   3   472                        27.4     
   3   473                        27.4     
   3   474                        27.5     
   3   475                        27.5     
   3   476                        27.6     
   3   477                        27.7     
   3   478                        27.7     
   3   479                        27.8     
   3   480                        27.8     
   3   481                        27.9     
   3   482                        28.0     
   3   483                        28.0     
   3   484                        28.1     
   3   485                        28.1     
   3   486                        28.2     
   3   487                        28.2     
   3   488                        28.3     
   3   489                        28.4     
   3   490                        28.4     
   3   491                        28.5     
   3   492                        28.5     
   3   493                        28.6     
   3   494                        28.7     
   3   495                        28.7     
   3   496                        28.8     
   3   497                        28.8     
   3   498                        28.9     
   3   499                        28.9     
   3   500                        29.0     
   3   501                        29.1     
   3   502                        29.1     
   3   503                        29.2     
   3   504                        29.2     
   3   505                        29.3     
   3   506                        29.4     
   3   507                        29.4     
   3   508                        29.5     
   3   509                        29.5     
   3   510                        29.6     
   3   511                        29.6     
   3   512                        29.7     
   3   513                        29.8     
   3   514                        29.8     
   3   515                        29.9     
   3   516                        29.9     
   3   517                        30.0     
   3   518                        30.0     
   3   519                        30.1     
   3   520                        30.2     
   3   521                        30.2     
   3   522                        30.3     
   3   523                        30.3     
   3   524                        30.4     
   3   525                        30.5     
   3   526                        30.5     
   3   527                        30.6     
   3   528                        30.6     
   3   529                        30.7     
   3   530                        30.7     
   3   531                        30.8     
   3   532                        30.9     
   3   533                        30.9     
   3   534                        31.0     
   3   535                        31.0     
   3   536                        31.1     
   3   537                        31.2     
   3   538                        31.2     
   3   539                        31.3     
   3   540                        31.3     
   3   541                        31.4     
   3   542                        31.4     
   3   543                        31.5     
   3   544                        31.6     
   3   545                        31.6     
   3   546                        31.7     
   3   547                        31.7     
   3   548                        31.8     
   3   549                        31.9     
   3   550                        31.9     
   3   551                        32.0     
   3   552                        32.0     
   3   553                        32.1     
   3   554                        32.1     
   3   555                        32.2     
   3   556                        32.3     
   3   557                        32.3     
   3   558                        32.4     
   3   559                        32.4     
   3   560                        32.5     
   3   561                        32.5     
   3   562                        32.6     
   3   563                        32.7     
   3   564                        32.7     
   3   565                        32.8     
   3   566                        32.8     
   3   567                        32.9     
   3   568                        33.0     
   3   569                        33.0     
   3   570                        33.1     
   3   571                        33.1     
   3   572                        33.2     
   3   573                        33.2     
   3   574                        33.3     
   3   575                        33.4     
   3   576                        33.4     
   3   577                        33.5     
   3   578                        33.5     
   3   579                        33.6     
   3   580                        33.7     
   3   581                        33.7     
   3   582                        33.8     
   3   583                        33.8     
   3   584                        33.9     
   3   585                        33.9     
   3   586                        34.0     
   3   587                        34.1     
   3   588                        34.1     
   3   589                        34.2     
   3   590                        34.2     
   3   591                        34.3     
   3   592                        34.3     
   3   593                        34.4     
   3   594                        34.5     
   3   595                        34.5     
   3   596                        34.6     
   3   597                        34.6     
   3   598                        34.7     
   3   599                        34.8     
   3   600                        34.8     
   3   601                        34.9     
   3   602                        34.9     
   3   603                        35.0     
   3   604                        35.0     
   3   605                        35.1     
   3   606                        35.2     
   3   607                        35.2     
   3   608                        35.3     
   3   609                        35.3     
   3   610                        35.4     
   3   611                        35.5     
   3   612                        35.5     
   3   613                        35.6     
   3   614                        35.6     
   3   615                        35.7     
   3   616                        35.7     
   3   617                        35.8     
   3   618                        35.9     
   3   619                        35.9     
   3   620                        36.0     
   3   621                        36.0     
   3   622                        36.1     
   3   623                        36.2     
   3   624                        36.2     
   3   625                        36.3     
   3   626                        36.3     
   3   627                        36.4     
   3   628                        36.4     
   3   629                        36.5     
   3   630                        36.6     
   3   631                        36.6     
   3   632                        36.7     
   3   633                        36.7     
   3   634                        36.8     
   3   635                        36.8     
   3   636                        36.9     
   3   637                        37.0     
   3   638                        37.0     
   3   639                        37.1     
   3   640                        37.1     
   3   641                        37.2     
   3   642                        37.3     
   3   643                        37.3     
   3   644                        37.4     
   3   645                        37.4     
   3   646                        37.5     
   3   647                        37.5     
   3   648                        37.6     
   3   649                        37.7     
   3   650                        37.7     
   3   651                        37.8     
   3   652                        37.8     
   3   653                        37.9     
   3   654                        38.0     
   3   655                        38.0     
   3   656                        38.1     
   3   657                        38.1     
   3   658                        38.2     
   3   659                        38.2     
   3   660                        38.3     
   3   661                        38.4     
   3   662                        38.4     
   3   663                        38.5     
   3   664                        38.5     
   3   665                        38.6     
   3   666                        38.7     
   3   667                        38.7     
   3   668                        38.8     
   3   669                        38.8     
   3   670                        38.9     
   3   671                        38.9     
   3   672                        39.0     
   3   673                        39.1     
   3   674                        39.1     
   3   675                        39.2     
   3   676                        39.2     
   3   677                        39.3     
   3   678                        39.3     
   3   679                        39.4     
   3   680                        39.5     
   3   681                        39.5     
   3   682                        39.6     
   3   683                        39.6     
   3   684                        39.7     
   3   685                        39.8     
   3   686                        39.8     
   3   687                        39.9     
   3   688                        39.9     
   3   689                        40.0     
   3   690                        40.0     
   3   691                        40.1     
   3   692                        40.2     
   3   693                        40.2     
   3   694                        40.3     
   3   695                        40.3     
   3   696                        40.4     
   3   697                        40.5     
   3   698                        40.5     
   3   699                        40.6     
   3   700                        40.6     
   3   701                        40.9     
   3   702                        41.2     
   3   703                        41.5     
   3   704                        41.8     
   3   705                        42.1     
   3   706                        42.4     
   3   707                        42.7     
   3   708                        43.0     
   3   709                        43.3     
   3   710                        43.6     
   3   711                        43.9     
   3   712                        44.2     
   3   713                        44.5     
   3   714                        44.9     
   3   715                        45.2     
   3   716                        45.5     
   3   717                        45.8     
   3   718                        46.1     
   3   719                        46.4     
   3   720                        46.7     
   3   721                        47.0     
   3   722                        47.3     
   3   723                        47.6     
   3   724                        47.9     
   3   725                        48.2     
   3   726                        48.5     
   3   727                        48.8     
   3   728                        49.1     
   3   729                        49.4     
   3   730                        49.7     
   3   731                        50.0     
   3   732                        50.3     
   3   733                        50.6     
   3   734                        50.9     
   3   735                        51.2     
   3   736                        51.5     
   3   737                        51.8     
   3   738                        52.1     
   3   739                        52.4     
   3   740                        52.7     
   3   741                        53.0     
   3   742                        53.3     
   3   743                        53.6     
   3   744                        53.9     
   3   745                        54.2     
   3   746                        54.5     
   3   747                        54.8     
   3   748                        55.1     
   3   749                        55.4     
   3   750                        55.7     
   3   751                        56.0     
   3   752                        56.3     
   3   753                        56.6     
   3   754                        56.9     
   3   755                        57.2     
   3   756                        57.5     
   3   757                        57.8     
   3   758                        58.1     
   3   759                        58.4     
   3   760                        58.7     
   3   761                        59.0     
   3   762                        59.3     
   3   763                        59.6     
   3   764                        59.9     
   3   765                        60.2     
   3   766                        60.5     
   3   767                        60.8     
   3   768                        61.1     
   3   769                        61.4     
   3   770                        61.7     
   3   771                        62.0     
   3   772                        62.3     
   3   773                        62.6     
   3   774                        63.0     
   3   775                        63.3     
   3   776                        63.6     
   3   777                        63.9     
   3   778                        64.2     
   3   779                        64.5     
   3   780                        64.8     
   3   781                        65.1     
   3   782                        65.4     
   3   783                        65.7     
   3   784                        66.0     
   3   785                        66.3     
   3   786                        66.6     
   3   787                        66.9     
   3   788                        67.2     
   3   789                        67.5     
   3   790                        67.8     
   3   791                        68.1     
   3   792                        68.4     
   3   793                        68.7     
   3   794                        69.0     
   3   795                        69.3     
   3   796                        69.6     
   3   797                        69.9     
   3   798                        70.2     
   3   799                        70.5     
   3   800                        70.8     
   3   801                        71.1     
   3   802                        71.4     
   3   803                        71.7     
   3   804                        72.0     
   3   805                        72.3     
   3   806                        72.6     
   3   807                        72.9     
   3   808                        73.2     
   3   809                        73.5     
   3   810                        73.8     
   3   811                        74.1     
   3   812                        74.4     
   3   813                        74.7     
   3   814                        75.0     
   3   815                        75.3     
   3   816                        75.6     
   3   817                        75.9     
   3   818                        76.2     
   3   819                        76.5     
   3   820                        76.8     
   3   821                        77.1     
   3   822                        77.4     
   3   823                        77.7     
   3   824                        78.0     
   3   825                        78.3     
   3   826                        78.6     
   3   827                        78.9     
   3   828                        79.2     
   3   829                        79.5     
   3   830                        79.8     
   3   831                        80.1     
   3   832                        80.4     
   3   833                        80.7     
   3   834                        81.1     
   3   835                        81.4     
   3   836                        81.7     
   3   837                        82.0     
   3   838                        82.3     
   3   839                        82.6     
   3   840                        82.9     
   3   841                        83.2     
   3   842                        83.5     
   3   843                        83.8     
   3   844                        84.1     
   3   845                        84.4     
   3   846                        84.7     
   3   847                        85.0     
   3   848                        85.3     
   3   849                        85.6     
   3   850                        85.9     
   3   851                        86.2     
   3   852                        86.5     
   3   853                        86.8     
   3   854                        87.1     
   3   855                        87.4     
   3   856                        87.7     
   3   857                        88.0     
   3   858                        88.3     
   3   859                        88.6     
   3   860                        88.9     
   3   861                        89.2     
   3   862                        89.5     
   3   863                        89.8     
   3   864                        90.1     
   3   865                        90.4     
   3   866                        90.7     
   3   867                        91.0     
   3   868                        91.3     
   3   869                        91.6     
   3   870                        91.9     
   3   871                        92.2     
   3   872                        92.5     
   3   873                        92.8     
   3   874                        93.1     
   3   875                        93.4     
   3   876                        93.7     
   3   877                        94.0     
   3   878                        94.3     
   3   879                        94.6     
   3   880                        94.9     
   3   881                        95.2     
   3   882                        95.5     
   3   883                        95.8     
   3   884                        96.1     
   3   885                        96.4     
   3   886                        96.7     
   3   887                        97.0     
   3   888                        97.3     
   3   889                        97.6     
   3   890                        97.9     
   3   891                        98.2     
   3   892                        98.5     
   3   893                        98.9     
   3   894                        99.2     
   3   895                        99.5     
   3   896                        99.8     
   3   897                        100.     
   3   898                        100.     
   3   899                        101.     
   3   900                        101.     
   3   901                        101.     
   3   902                        102.     
   3   903                        102.     
   3   904                        102.     
   3   905                        102.     
   3   906                        103.     
   3   907                        103.     
   3   908                        103.     
   3   909                        104.     
   3   910                        104.     
   3   911                        104.     
   3   912                        105.     
   3   913                        105.     
   3   914                        105.     
   3   915                        105.     
   3   916                        106.     
   3   917                        106.     
   3   918                        106.     
   3   919                        107.     
   3   920                        107.     
   3   921                        107.     
   3   922                        108.     
   3   923                        108.     
   3   924                        108.     
   3   925                        109.     
   3   926                        109.     
   3   927                        109.     
   3   928                        109.     
   3   929                        110.     
   3   930                        110.     
   3   931                        110.     
   3   932                        111.     
   3   933                        111.     
   3   934                        111.     
   3   935                        112.     
   3   936                        112.     
   3   937                        112.     
   3   938                        112.     
   3   939                        113.     
   3   940                        113.     
   3   941                        113.     
   3   942                        114.     
   3   943                        114.     
   3   944                        114.     
   3   945                        115.     
   3   946                        115.     
   3   947                        115.     
   3   948                        115.     
   3   949                        116.     
   3   950                        116.     
   3   951                        116.     
   3   952                        117.     
   3   953                        117.     
   3   954                        117.     
   3   955                        118.     
   3   956                        118.     
   3   957                        118.     
   3   958                        118.     
   3   959                        119.     
   3   960                        119.     
   3   961                        119.     
   3   962                        120.     
   3   963                        120.     
   3   964                        120.     
   3   965                        121.     
   3   966                        121.     
   3   967                        121.     
   3   968                        121.     
   3   969                        122.     
   3   970                        122.     
   3   971                        122.     
   3   972                        123.     
   3   973                        123.     
   3   974                        123.     
   3   975                        124.     
   3   976                        124.     
   3   977                        124.     
   3   978                        124.     
   3   979                        125.     
   3   980                        125.     
   3   981                        125.     
   3   982                        126.     
   3   983                        126.     
   3   984                        126.     
   3   985                        127.     
   3   986                        127.     
   3   987                        127.     
   3   988                        128.     
   3   989                        128.     
   3   990                        128.     
   3   991                        128.     
   3   992                        129.     
   3   993                        129.     
   3   994                        129.     
   3   995                        130.     
   3   996                        130.     
   3   997                        130.     
   3   998                        131.     
   3   999                        131.     
   3  1000                        131.     
   3  1001                        131.     
   3  1002                        132.     
   3  1003                        132.     
   3  1004                        132.     
   3  1005                        133.     
   3  1006                        133.     
   3  1007                        133.     
   3  1008                        134.     
   3  1009                        134.     
   3  1010                        134.     
   3  1011                        134.     
   3  1012                        135.     
   3  1013                        135.     
   3  1014                        135.     
   3  1015                        136.     
   3  1016                        136.     
   3  1017                        136.     
   3  1018                        137.     
   3  1019                        137.     
   3  1020                        137.     
   3  1021                        137.     
   3  1022                        138.     
   3  1023                        138.     
   3  1024                        138.     
   3  1025                        139.     
   3  1026                        139.     
   3  1027                        139.     
   3  1028                        140.     
   3  1029                        140.     
   3  1030                        140.     
   3  1031                        140.     
   3  1032                        141.     
   3  1033                        141.     
   3  1034                        141.     
   3  1035                        142.     
   3  1036                        142.     
   3  1037                        142.     
   3  1038                        143.     
   3  1039                        143.     
   3  1040                        143.     
   3  1041                        143.     
   3  1042                        144.     
   3  1043                        144.     
   3  1044                        144.     
   3  1045                        145.     
   3  1046                        145.     
   3  1047                        145.     
   3  1048                        146.     
   3  1049                        146.     
   3  1050                        146.     
   3  1051                        147.     
   3  1052                        147.     
   3  1053                        147.     
   3  1054                        147.     
   3  1055                        148.     
   3  1056                        148.     
   3  1057                        148.     
   3  1058                        149.     
   3  1059                        149.     
   3  1060                        149.     
   3  1061                        150.     
   3  1062                        150.     
   3  1063                        150.     
   3  1064                        150.     
   3  1065                        151.     
   3  1066                        151.     
   3  1067                        151.     
   3  1068                        152.     
   3  1069                        152.     
   3  1070                        152.     
   3  1071                        153.     
   3  1072                        153.     
   3  1073                        153.     
   3  1074                        153.     
   3  1075                        154.     
   3  1076                        154.     
   3  1077                        154.     
   3  1078                        155.     
   3  1079                        155.     
   3  1080                        155.     
   3  1081                        156.     
   3  1082                        156.     
   3  1083                        156.     
   3  1084                        156.     
   3  1085                        157.     
   3  1086                        157.     
   3  1087                        157.     
   3  1088                        158.     
   3  1089                        158.     
   3  1090                        158.     
   3  1091                        159.     
   3  1092                        159.     
   3  1093                        159.     
   3  1094                        159.     
   3  1095                        160.     
   3  1096                        160.     
   3  1097                        160.     
   3  1098                        161.     
   3  1099                        161.     
   3  1100                        161.     
   3  1101                        162.     
   3  1102                        162.     
   3  1103                        162.     
   3  1104                        163.     
   3  1105                        163.     
   3  1106                        163.     
   3  1107                        163.     
   3  1108                        164.     
   3  1109                        164.     
   3  1110                        164.     
   3  1111                        165.     
   3  1112                        165.     
   3  1113                        165.     
   3  1114                        166.     
   3  1115                        166.     
   3  1116                        166.     
   3  1117                        166.     
   3  1118                        167.     
   3  1119                        167.     
   3  1120                        167.     
   3  1121                        168.     
   3  1122                        168.     
   3  1123                        168.     
   3  1124                        169.     
   3  1125                        169.     
   3  1126                        169.     
   3  1127                        169.     
   3  1128                        170.     
   3  1129                        170.     
   3  1130                        170.     
   3  1131                        171.     
   3  1132                        171.     
   3  1133                        171.     
   3  1134                        172.     
   3  1135                        172.     
   3  1136                        172.     
   3  1137                        172.     
   3  1138                        173.     
   3  1139                        173.     
   3  1140                        173.     
   3  1141                        174.     
   3  1142                        174.     
   3  1143                        174.     
   3  1144                        175.     
   3  1145                        175.     
   3  1146                        175.     
   3  1147                        175.     
   3  1148                        176.     
   3  1149                        176.     
   3  1150                        176.     
   3  1151                        177.     
   3  1152                        177.     
   3  1153                        177.     
   3  1154                        178.     
   3  1155                        178.     
   3  1156                        178.     
   3  1157                        178.     
   3  1158                        179.     
   3  1159                        179.     
   3  1160                        179.     
   3  1161                        180.     
   3  1162                        180.     
   3  1163                        180.     
   3  1164                        181.     
   3  1165                        181.     
   3  1166                        181.     
   3  1167                        182.     
   3  1168                        182.     
   3  1169                        182.     
   3  1170                        182.     
   3  1171                        183.     
   3  1172                        183.     
   3  1173                        183.     
   3  1174                        184.     
   3  1175                        184.     
   3  1176                        184.     
   3  1177                        185.     
   3  1178                        185.     
   3  1179                        185.     
   3  1180                        185.     
   3  1181                        186.     
   3  1182                        186.     
   3  1183                        186.     
   3  1184                        187.     
   3  1185                        187.     
   3  1186                        187.     
   3  1187                        188.     
   3  1188                        188.     
   3  1189                        188.     
   3  1190                        188.     
   3  1191                        189.     
   3  1192                        189.     
   3  1193                        189.     
   3  1194                        190.     
   3  1195                        190.     
   3  1196                        190.     
   3  1197                        191.     
   3  1198                        191.     
   3  1199                        191.     
   3  1200                        191.     
   3  1201                        192.     
   3  1202                        192.     
   3  1203                        192.     
   3  1204                        193.     
   3  1205                        193.     
   3  1206                        193.     
   3  1207                        194.     
   3  1208                        194.     
   3  1209                        194.     
   3  1210                        194.     
   3  1211                        195.     
   3  1212                        195.     
   3  1213                        195.     
   3  1214                        196.     
   3  1215                        196.     
   3  1216                        196.     
   3  1217                        197.     
   3  1218                        197.     
   3  1219                        197.     
   3  1220                        197.     
   3  1221                        198.     
   3  1222                        198.     
   3  1223                        198.     
   3  1224                        199.     
   3  1225                        199.     
   3  1226                        199.     
   3  1227                        200.     
   3  1228                        200.     
   3  1229                        200.     
   3  1230                        201.     
   3  1231                        201.     
   3  1232                        201.     
   3  1233                        201.     
   3  1234                        202.     
   3  1235                        202.     
   3  1236                        202.     
   3  1237                        203.     
   3  1238                        203.     
   3  1239                        203.     
   3  1240                        204.     
   3  1241                        204.     
   3  1242                        204.     
   3  1243                        204.     
   3  1244                        205.     
   3  1245                        205.     
   3  1246                        205.     
   3  1247                        206.     
   3  1248                        206.     
   3  1249                        206.     
   3  1250                        207.     
   3  1251                        207.     
   3  1252                        207.     
   3  1253                        207.     
   3  1254                        208.     
   3  1255                        208.     
   3  1256                        208.     
   3  1257                        209.     
   3  1258                        209.     
   3  1259                        209.     
   3  1260                        210.     
   3  1261                        210.     
   3  1262                        210.     
   3  1263                        210.     
   3  1264                        211.     
   3  1265                        211.     
   3  1266                        211.     
   3  1267                        212.     
   3  1268                        212.     
   3  1269                        212.     
   3  1270                        213.     
   3  1271                        213.     
   3  1272                        213.     
   3  1273                        213.     
   3  1274                        214.     
   3  1275                        214.     
   3  1276                        214.     
   3  1277                        215.     
   3  1278                        215.     
   3  1279                        215.     
   3  1280                        216.     
   3  1281                        216.     
   3  1282                        216.     
   3  1283                        217.     
   3  1284                        217.     
   3  1285                        217.     
   3  1286                        217.     
   3  1287                        218.     
   3  1288                        218.     
   3  1289                        218.     
   3  1290                        219.     
   3  1291                        219.     
   3  1292                        219.     
   3  1293                        220.     
   3  1294                        220.     
   3  1295                        220.     
   3  1296                        220.     
   3  1297                        221.     
   3  1298                        221.     
   3  1299                        221.     
   3  1300                        222.     
   3  1301                        222.     
   3  1302                        222.     
   3  1303                        223.     
   3  1304                        223.     
   3  1305                        223.     
   3  1306                        223.     
   3  1307                        224.     
   3  1308                        224.     
   3  1309                        224.     
   3  1310                        225.     
   3  1311                        225.     
   3  1312                        225.     
   3  1313                        226.     
   3  1314                        226.     
   3  1315                        226.     
   3  1316                        226.     
   3  1317                        227.     
   3  1318                        227.     
   3  1319                        227.     
   3  1320                        228.     
   3  1321                        228.     
   3  1322                        228.     
   3  1323                        229.     
   3  1324                        229.     
   3  1325                        229.     
   3  1326                        229.     
   3  1327                        230.     
   3  1328                        230.     
   3  1329                        230.     
   3  1330                        231.     
   3  1331                        231.     
   3  1332                        231.     
   3  1333                        232.     
   3  1334                        232.     
   3  1335                        232.     
   3  1336                        232.     
   3  1337                        233.     
   3  1338                        233.     
   3  1339                        233.     
   3  1340                        234.     
   3  1341                        234.     
   3  1342                        234.     
   3  1343                        235.     
   3  1344                        235.     
   3  1345                        235.     
   3  1346                        236.     
   3  1347                        236.     
   3  1348                        236.     
   3  1349                        236.     
   3  1350                        237.     
   3  1351                        237.     
   3  1352                        237.     
   3  1353                        238.     
   3  1354                        238.     
   3  1355                        238.     
   3  1356                        239.     
   3  1357                        239.     
   3  1358                        239.     
   3  1359                        239.     
   3  1360                        240.     
   3  1361                        240.     
   3  1362                        240.     
   3  1363                        241.     
   3  1364                        241.     
   3  1365                        241.     
   3  1366                        242.     
   3  1367                        242.     
   3  1368                        242.     
   3  1369                        242.     
   3  1370                        243.     
   3  1371                        243.     
   3  1372                        243.     
   3  1373                        244.     
   3  1374                        244.     
   3  1375                        244.     
   3  1376                        245.     
   3  1377                        245.     
   3  1378                        245.     
   3  1379                        245.     
   3  1380                        246.     
   3  1381                        246.     
   3  1382                        246.     
   3  1383                        247.     
   3  1384                        247.     
   3  1385                        247.     
   3  1386                        248.     
   3  1387                        248.     
   3  1388                        248.     
   3  1389                        248.     
   3  1390                        249.     
   3  1391                        249.     
   3  1392                        249.     
   3  1393                        250.     
   3  1394                        250.     
   3  1395                        250.     
   3  1396                        251.     
   3  1397                        251.     
   3  1398                        251.     
   3  1399                        251.     
   3  1400                        252.     
   3  1401                        252.     
   3  1402                        252.     
   3  1403                        252.     
   3  1404                        252.     
   3  1405                        252.     
   3  1406                        252.     
   3  1407                        252.     
   3  1408                        252.     
   3  1409                        252.     
   3  1410                        252.     
   3  1411                        252.     
   3  1412                        252.     
   3  1413                        252.     
   3  1414                        253.     
   3  1415                        253.     
   3  1416                        253.     
   3  1417                        253.     
   3  1418                        253.     
   3  1419                        253.     
   3  1420                        253.     
   3  1421                        253.     
   3  1422                        253.     
   3  1423                        253.     
   3  1424                        253.     
   3  1425                        253.     
   3  1426                        253.     
   3  1427                        253.     
   3  1428                        254.     
   3  1429                        254.     
   3  1430                        254.     
   3  1431                        254.     
   3  1432                        254.     
   3  1433                        254.     
   3  1434                        254.     
   3  1435                        254.     
   3  1436                        254.     
   3  1437                        254.     
   3  1438                        254.     
   3  1439                        254.     
   3  1440                        254.     
   3  1441                        254.     
   3  1442                        254.     
   3  1443                        255.     
   3  1444                        255.     
   3  1445                        255.     
   3  1446                        255.     
   3  1447                        255.     
   3  1448                        255.     
   3  1449                        255.     
   3  1450                        255.     
   3  1451                        255.     
   3  1452                        255.     
   3  1453                        255.     
   3  1454                        255.     
   3  1455                        255.     
   3  1456                        255.     
   3  1457                        256.     
   3  1458                        256.     
   3  1459                        256.     
   3  1460                        256.     
   3  1461                        256.     
   3  1462                        256.     
   3  1463                        256.     
   3  1464                        256.     
   3  1465                        256.     
   3  1466                        256.     
   3  1467                        256.     
   3  1468                        256.     
   3  1469                        256.     
   3  1470                        256.     
   3  1471                        256.     
   3  1472                        257.     
   3  1473                        257.     
   3  1474                        257.     
   3  1475                        257.     
   3  1476                        257.     
   3  1477                        257.     
   3  1478                        257.     
   3  1479                        257.     
   3  1480                        257.     
   3  1481                        257.     
   3  1482                        257.     
   3  1483                        257.     
   3  1484                        257.     
   3  1485                        257.     
   3  1486                        258.     
   3  1487                        258.     
   3  1488                        258.     
   3  1489                        258.     
   3  1490                        258.     
   3  1491                        258.     
   3  1492                        258.     
   3  1493                        258.     
   3  1494                        258.     
   3  1495                        258.     
   3  1496                        258.     
   3  1497                        258.     
   3  1498                        258.     
   3  1499                        258.     
   3  1500                        259.     
   3  1501                        259.     
   3  1502                        259.     
   3  1503                        259.     
   3  1504                        259.     
   3  1505                        259.     
   3  1506                        259.     
   3  1507                        259.     
   3  1508                        259.     
   3  1509                        259.     
   3  1510                        259.     
   3  1511                        259.     
   3  1512                        259.     
   3  1513                        259.     
   3  1514                        259.     
   3  1515                        260.     
   3  1516                        260.     
   3  1517                        260.     
   3  1518                        260.     
   3  1519                        260.     
   3  1520                        260.     
   3  1521                        260.     
   3  1522                        260.     
   3  1523                        260.     
   3  1524                        260.     
   3  1525                        260.     
   3  1526                        260.     
   3  1527                        260.     
   3  1528                        260.     
   3  1529                        261.     
   3  1530                        261.     
   3  1531                        261.     
   3  1532                        261.     
   3  1533                        261.     
   3  1534                        261.     
   3  1535                        261.     
   3  1536                        261.     
   3  1537                        261.     
   3  1538                        261.     
   3  1539                        261.     
   3  1540                        261.     
   3  1541                        261.     
   3  1542                        261.     
   3  1543                        261.     
   3  1544                        262.     
   3  1545                        262.     
   3  1546                        262.     
   3  1547                        262.     
   3  1548                        262.     
   3  1549                        262.     
   3  1550                        262.     
   3  1551                        262.     
   3  1552                        262.     
   3  1553                        262.     
   3  1554                        262.     
   3  1555                        262.     
   3  1556                        262.     
   3  1557                        262.     
   3  1558                        263.     
   3  1559                        263.     
   3  1560                        263.     
   3  1561                        263.     
   3  1562                        263.     
   3  1563                        263.     
   3  1564                        263.     
   3  1565                        263.     
   3  1566                        263.     
   3  1567                        263.     
   3  1568                        263.     
   3  1569                        263.     
   3  1570                        263.     
   3  1571                        263.     
   3  1572                        264.     
   3  1573                        264.     
   3  1574                        264.     
   3  1575                        264.     
   3  1576                        264.     
   3  1577                        264.     
   3  1578                        264.     
   3  1579                        264.     
   3  1580                        264.     
   3  1581                        264.     
   3  1582                        264.     
   3  1583                        264.     
   3  1584                        264.     
   3  1585                        264.     
   3  1586                        264.     
   3  1587                        265.     
   3  1588                        265.     
   3  1589                        265.     
   3  1590                        265.     
   3  1591                        265.     
   3  1592                        265.     
   3  1593                        265.     
   3  1594                        265.     
   3  1595                        265.     
   3  1596                        265.     
   3  1597                        265.     
   3  1598                        265.     
   3  1599                        265.     
   3  1600                        265.     
   3  1601                        266.     
   3  1602                        266.     
   3  1603                        266.     
   3  1604                        266.     
   3  1605                        266.     
   3  1606                        266.     
   3  1607                        266.     
   3  1608                        266.     
   3  1609                        266.     
   3  1610                        266.     
   3  1611                        266.     
   3  1612                        266.     
   3  1613                        266.     
   3  1614                        266.     
   3  1615                        266.     
   3  1616                        267.     
   3  1617                        267.     
   3  1618                        267.     
   3  1619                        267.     
   3  1620                        267.     
   3  1621                        267.     
   3  1622                        267.     
   3  1623                        267.     
   3  1624                        267.     
   3  1625                        267.     
   3  1626                        267.     
   3  1627                        267.     
   3  1628                        267.     
   3  1629                        267.     
   3  1630                        268.     
   3  1631                        268.     
   3  1632                        268.     
   3  1633                        268.     
   3  1634                        268.     
   3  1635                        268.     
   3  1636                        268.     
   3  1637                        268.     
   3  1638                        268.     
   3  1639                        268.     
   3  1640                        268.     
   3  1641                        268.     
   3  1642                        268.     
   3  1643                        268.     
   3  1644                        268.     
   3  1645                        269.     
   3  1646                        269.     
   3  1647                        269.     
   3  1648                        269.     
   3  1649                        269.     
   3  1650                        269.     
   3  1651                        269.     
   3  1652                        269.     
   3  1653                        269.     
   3  1654                        269.     
   3  1655                        269.     
   3  1656                        269.     
   3  1657                        269.     
   3  1658                        269.     
   3  1659                        270.     
   3  1660                        270.     
   3  1661                        270.     
   3  1662                        270.     
   3  1663                        270.     
   3  1664                        270.     
   3  1665                        270.     
   3  1666                        270.     
   3  1667                        270.     
   3  1668                        270.     
   3  1669                        270.     
   3  1670                        270.     
   3  1671                        270.     
   3  1672                        270.     
   3  1673                        271.     
   3  1674                        271.     
   3  1675                        271.     
   3  1676                        271.     
   3  1677                        271.     
   3  1678                        271.     
   3  1679                        271.     
   3  1680                        271.     
   3  1681                        271.     
   3  1682                        271.     
   3  1683                        271.     
   3  1684                        271.     
   3  1685                        271.     
   3  1686                        271.     
   3  1687                        271.     
   3  1688                        272.     
   3  1689                        272.     
   3  1690                        272.     
   3  1691                        272.     
   3  1692                        272.     
   3  1693                        272.     
   3  1694                        272.     
   3  1695                        272.     
   3  1696                        272.     
   3  1697                        272.     
   3  1698                        272.     
   3  1699                        272.     
   3  1700                        272.     
   3  1701                        272.     
   3  1702                        273.     
   3  1703                        273.     
   3  1704                        273.     
   3  1705                        273.     
   3  1706                        273.     
   3  1707                        273.     
   3  1708                        273.     
   3  1709                        273.     
   3  1710                        273.     
   3  1711                        273.     
   3  1712                        273.     
   3  1713                        273.     
   3  1714                        273.     
   3  1715                        273.     
   3  1716                        273.     
   3  1717                        274.     
   3  1718                        274.     
   3  1719                        274.     
   3  1720                        274.     
   3  1721                        274.     
   3  1722                        274.     
   3  1723                        274.     
   3  1724                        274.     
   3  1725                        274.     
   3  1726                        274.     
   3  1727                        274.     
   3  1728                        274.     
   3  1729                        274.     
   3  1730                        274.     
   3  1731                        275.     
   3  1732                        275.     
   3  1733                        275.     
   3  1734                        275.     
   3  1735                        275.     
   3  1736                        275.     
   3  1737                        275.     
   3  1738                        275.     
   3  1739                        275.     
   3  1740                        275.     
   3  1741                        275.     
   3  1742                        275.     
   3  1743                        275.     
   3  1744                        275.     
   3  1745                        276.     
   3  1746                        276.     
   3  1747                        276.     
   3  1748                        276.     
   3  1749                        276.     
   3  1750                        276.     
   3  1751                        276.     
   3  1752                        276.     
   3  1753                        276.     
   3  1754                        276.     
   3  1755                        276.     
   3  1756                        276.     
   3  1757                        276.     
   3  1758                        276.     
   3  1759                        276.     
   3  1760                        277.     
   3  1761                        277.     
   3  1762                        277.     
   3  1763                        277.     
   3  1764                        277.     
   3  1765                        277.     
   3  1766                        277.     
   3  1767                        277.     
   3  1768                        277.     
   3  1769                        277.     
   3  1770                        277.     
   3  1771                        277.     
   3  1772                        277.     
   3  1773                        277.     
   3  1774                        278.     
   3  1775                        278.     
   3  1776                        278.     
   3  1777                        278.     
   3  1778                        278.     
   3  1779                        278.     
   3  1780                        278.     
   3  1781                        278.     
   3  1782                        278.     
   3  1783                        278.     
   3  1784                        278.     
   3  1785                        278.     
   3  1786                        278.     
   3  1787                        278.     
   3  1788                        278.     
   3  1789                        279.     
   3  1790                        279.     
   3  1791                        279.     
   3  1792                        279.     
   3  1793                        279.     
   3  1794                        279.     
   3  1795                        279.     
   3  1796                        279.     
   3  1797                        279.     
   3  1798                        279.     
   3  1799                        279.     
   3  1800                        279.     
   3  1801                        279.     
   3  1802                        279.     
   3  1803                        280.     
   3  1804                        280.     
   3  1805                        280.     
   3  1806                        280.     
   3  1807                        280.     
   3  1808                        280.     
   3  1809                        280.     
   3  1810                        280.     
   3  1811                        280.     
   3  1812                        280.     
   3  1813                        280.     
   3  1814                        280.     
   3  1815                        280.     
   3  1816                        280.     
   3  1817                        281.     
   3  1818                        281.     
   3  1819                        281.     
   3  1820                        281.     
   3  1821                        281.     
   3  1822                        281.     
   3  1823                        281.     
   3  1824                        281.     
   3  1825                        281.     
   3  1826                        281.     
   3  1827                        281.     
   3  1828                        281.     
   3  1829                        281.     
   3  1830                        281.     
   3  1831                        281.     
   3  1832                        282.     
   3  1833                        282.     
   3  1834                        282.     
   3  1835                        282.     
   3  1836                        282.     
   3  1837                        282.     
   3  1838                        282.     
   3  1839                        282.     
   3  1840                        282.     
   3  1841                        282.     
   3  1842                        282.     
   3  1843                        282.     
   3  1844                        282.     
   3  1845                        282.     
   3  1846                        283.     
   3  1847                        283.     
   3  1848                        283.     
   3  1849                        283.     
   3  1850                        283.     
   3  1851                        283.     
   3  1852                        283.     
   3  1853                        283.     
   3  1854                        283.     
   3  1855                        283.     
   3  1856                        283.     
   3  1857                        283.     
   3  1858                        283.     
   3  1859                        283.     
   3  1860                        283.     
   3  1861                        284.     
   3  1862                        284.     
   3  1863                        284.     
   3  1864                        284.     
   3  1865                        284.     
   3  1866                        284.     
   3  1867                        284.     
   3  1868                        284.     
   3  1869                        284.     
   3  1870                        284.     
   3  1871                        284.     
   3  1872                        284.     
   3  1873                        284.     
   3  1874                        284.     
   3  1875                        285.     
   3  1876                        285.     
   3  1877                        285.     
   3  1878                        285.     
   3  1879                        285.     
   3  1880                        285.     
   3  1881                        285.     
   3  1882                        285.     
   3  1883                        285.     
   3  1884                        285.     
   3  1885                        285.     
   3  1886                        285.     
   3  1887                        285.     
   3  1888                        285.     
   3  1889                        285.     
   3  1890                        286.     
   3  1891                        286.     
   3  1892                        286.     
   3  1893                        286.     
   3  1894                        286.     
   3  1895                        286.     
   3  1896                        286.     
   3  1897                        286.     
   3  1898                        286.     
   3  1899                        286.     
   3  1900                        286.     
   3  1901                        286.     
   3  1902                        286.     
   3  1903                        286.     
   3  1904                        287.     
   3  1905                        287.     
   3  1906                        287.     
   3  1907                        287.     
   3  1908                        287.     
   3  1909                        287.     
   3  1910                        287.     
   3  1911                        287.     
   3  1912                        287.     
   3  1913                        287.     
   3  1914                        287.     
   3  1915                        287.     
   3  1916                        287.     
   3  1917                        287.     
   3  1918                        288.     
   3  1919                        288.     
   3  1920                        288.     
   3  1921                        288.     
   3  1922                        288.     
   3  1923                        288.     
   3  1924                        288.     
   3  1925                        288.     
   3  1926                        288.     
   3  1927                        288.     
   3  1928                        288.     
   3  1929                        288.     
   3  1930                        288.     
   3  1931                        288.     
   3  1932                        288.     
   3  1933                        289.     
   3  1934                        289.     
   3  1935                        289.     
   3  1936                        289.     
   3  1937                        289.     
   3  1938                        289.     
   3  1939                        289.     
   3  1940                        289.     
   3  1941                        289.     
   3  1942                        289.     
   3  1943                        289.     
   3  1944                        289.     
   3  1945                        289.     
   3  1946                        289.     
   3  1947                        290.     
   3  1948                        290.     
   3  1949                        290.     
   3  1950                        290.     
   3  1951                        290.     
   3  1952                        290.     
   3  1953                        290.     
   3  1954                        290.     
   3  1955                        290.     
   3  1956                        290.     
   3  1957                        290.     
   3  1958                        290.     
   3  1959                        290.     
   3  1960                        290.     
   3  1961                        290.     
   3  1962                        291.     
   3  1963                        291.     
   3  1964                        291.     
   3  1965                        291.     
   3  1966                        291.     
   3  1967                        291.     
   3  1968                        291.     
   3  1969                        291.     
   3  1970                        291.     
   3  1971                        291.     
   3  1972                        291.     
   3  1973                        291.     
   3  1974                        291.     
   3  1975                        291.     
   3  1976                        292.     
   3  1977                        292.     
   3  1978                        292.     
   3  1979                        292.     
   3  1980                        292.     
   3  1981                        292.     
   3  1982                        292.     
   3  1983                        292.     
   3  1984                        292.     
   3  1985                        292.     
   3  1986                        292.     
   3  1987                        292.     
   3  1988                        292.     
   3  1989                        292.     
   3  1990                        293.     
   3  1991                        293.     
   3  1992                        293.     
   3  1993                        293.     
   3  1994                        293.     
   3  1995                        293.     
   3  1996                        293.     
   3  1997                        293.     
   3  1998                        293.     
   3  1999                        293.     
   3  2000                        293.     
   3  2001                        293.     
   3  2002                        293.     
   3  2003                        293.     
   3  2004                        293.     
   3  2005                        294.     
   3  2006                        294.     
   3  2007                        294.     
   3  2008                        294.     
   3  2009                        294.     
   3  2010                        294.     
   3  2011                        294.     
   3  2012                        294.     
   3  2013                        294.     
   3  2014                        294.     
   3  2015                        294.     
   3  2016                        294.     
   3  2017                        294.     
   3  2018                        294.     
   3  2019                        295.     
   3  2020                        295.     
   3  2021                        295.     
   3  2022                        295.     
   3  2023                        295.     
   3  2024                        295.     
   3  2025                        295.     
   3  2026                        295.     
   3  2027                        295.     
   3  2028                        295.     
   3  2029                        295.     
   3  2030                        295.     
   3  2031                        295.     
   3  2032                        295.     
   3  2033                        295.     
   3  2034                        296.     
   3  2035                        296.     
   3  2036                        296.     
   3  2037                        296.     
   3  2038                        296.     
   3  2039                        296.     
   3  2040                        296.     
   3  2041                        296.     
   3  2042                        296.     
   3  2043                        296.     
   3  2044                        296.     
   3  2045                        296.     
   3  2046                        296.     
   3  2047                        296.     
   3  2048                        297.     
   3  2049                        297.     
   3  2050                        297.     
   3  2051                        297.     
   3  2052                        297.     
   3  2053                        297.     
   3  2054                        297.     
   3  2055                        297.     
   3  2056                        297.     
   3  2057                        297.     
   3  2058                        297.     
   3  2059                        297.     
   3  2060                        297.     
   3  2061                        297.     
   3  2062                        298.     
   3  2063                        298.     
   3  2064                        298.     
   3  2065                        298.     
   3  2066                        298.     
   3  2067                        298.     
   3  2068                        298.     
   3  2069                        298.     
   3  2070                        298.     
   3  2071                        298.     
   3  2072                        298.     
   3  2073                        298.     
   3  2074                        298.     
   3  2075                        298.     
   3  2076                        298.     
   3  2077                        299.     
   3  2078                        299.     
   3  2079                        299.     
   3  2080                        299.     
   3  2081                        299.     
   3  2082                        299.     
   3  2083                        299.     
   3  2084                        299.     
   3  2085                        299.     
   3  2086                        299.     
   3  2087                        299.     
   3  2088                        299.     
   3  2089                        299.     
   3  2090                        299.     
   3  2091                        300.     
   3  2092                        300.     
   3  2093                        300.     
   3  2094                        300.     
   3  2095                        300.     
   3  2096                        300.     
   3  2097                        300.     
   3  2098                        300.     
                          
 THE ANALYSIS HAS COMPLETED SUCCESSFULLY
