1

   Abaqus 6.14-1                                  Date 27-Jan-2016   Time 16:23:22
   For use by Supplied By SSQ under license from Dassault Systemes or its subsidiary.



                         The Abaqus Software is a product of:

                           Dassault Systemes Simulia Corp.
                                 Rising Sun Mills
                                 166 Valley Street
                           Providence, RI 02909-2499, USA
 


                   The Abaqus Software is available only under license
                   from Dassault Systemes or its subsidiary and may be
                   used or reproduced only in accordance with the terms
                   of such license.
 
                          On machine DESKTOP-5UE3P8V 
                          you are authorized to run
                          Abaqus/Standard until 31-Dec-2055

                          Your site id is:  


 
                    For assistance or any other information you may
                    obtain contact information for your local office
                    from the world wide web at:

                      http://www.3ds.com/products/simulia/locations/

 
                * * * * * * * * * * * * * * * * * * * * * * * * * * * * * * 
                *                                                         * 
                *                   *****************                     * 
                *                   *  N O T I C E  *                     * 
                *                   *****************                     * 
                *                                                         * 
                *                                                         * 
                *                    Abaqus 6.14-1                        * 
                *                                                         * 
                *          BUILD ID: 2014_06_04-18.11.02 134264           * 
                *                                                         * 
                *                                                         * 
                *  Please make sure you are using release 6.14 manuals    * 
                *  plus the notes accompanying this release.              * 
                *                                                         * 
                *                                                         * 
                *                                                         * 
                *                                                         * 
                * * * * * * * * * * * * * * * * * * * * * * * * * * * * * * 


 



     PROCESSING PART, INSTANCE, AND ASSEMBLY INFORMATION
   *******************************************************


     END PROCESSING PART, INSTANCE, AND ASSEMBLY INFORMATION
   ***********************************************************




     OPTIONS BEING PROCESSED
   ***************************


  *Heading
  *Node
  *Element, type=B21
  *Nset, nset=ASSEMBLY_PART-1-1_SET-1
  *Nset, nset=ASSEMBLY_PART-1-1_SET-2
  *Elset, elset=ASSEMBLY_PART-1-1_SET-1
  *Elset, elset=ASSEMBLY_PART-1-1_SET-2
  *Nset, nset=ASSEMBLY_SET-1
  *Nset, nset=ASSEMBLY_SET-3
  *Nset, nset=ASSEMBLY_SET-4
  *material, name=AL
  *density
  *elastic
  *boundary
  *beamsection, elset=ASSEMBLY_PART-1-1_SET-1, temperature=GRADIENTS, material=AL, section=RECTANGULAR
  *output, field, variable=PRESELECT
  *output, history, variable=PRESELECT
  *output, field, variable=PRESELECT
  *output, field, variable=PRESELECT
  *output, history, variable=PRESELECT
  *output, field, variable=PRESELECT
  *output, history, variable=PRESELECT
  *output, field, variable=PRESELECT
  *output, field, variable=PRESELECT
  *output, history, variable=PRESELECT
  *output, field, variable=PRESELECT
  *output, history, variable=PRESELECT
  *output, field, variable=PRESELECT
  *output, field, variable=PRESELECT
  *output, history, variable=PRESELECT
  *Step, name="Static Load", nlgeom=NO
  *output, field, variable=PRESELECT
  *output, history, variable=PRESELECT
  *Step, name="Freq Analysis", nlgeom=NO, perturbation
  *frequency, eigensolver=LANCZOS, normalization=DISPLACEMENT, acousticcoupling=OFF
  *output, field, variable=PRESELECT
  *Step, name="SS Dynamic", nlgeom=NO, perturbation
  *steadystatedynamics, frequencyscale=LINEAR
  *output, field, variable=PRESELECT
  *output, history, variable=PRESELECT
  *Step, name="Static Load", nlgeom=NO
  *Step, name="Freq Analysis", nlgeom=NO, perturbation
  *Step, name="SS Dynamic", nlgeom=NO, perturbation
  *Step, name="Static Load", nlgeom=NO
  *static
  *output, field, variable=PRESELECT
  *output, history, variable=PRESELECT
  *endstep
  *Step, name="Freq Analysis", nlgeom=NO, perturbation
  *frequency, eigensolver=LANCZOS, normalization=DISPLACEMENT, acousticcoupling=OFF
  *frequency, eigensolver=LANCZOS, normalization=DISPLACEMENT, acousticcoupling=OFF
  *output, field, variable=PRESELECT
  *endstep
  *Step, name="SS Dynamic", nlgeom=NO, perturbation
  *steadystatedynamics, frequencyscale=LINEAR

 ***WARNING: THE MINIMUM FREQUENCY WAS INCREASED TO 1.50487E-08.
  *output, field, variable=PRESELECT
  *output, history, variable=PRESELECT
  *endstep
  *boundary
  *Step, name="Static Load", nlgeom=NO
  *static
  *cload
  *endstep
  *Step, name="Freq Analysis", nlgeom=NO, perturbation
  *frequency, eigensolver=LANCZOS, normalization=DISPLACEMENT, acousticcoupling=OFF
  *frequency, eigensolver=LANCZOS, normalization=DISPLACEMENT, acousticcoupling=OFF
  *endstep
  *Step, name="SS Dynamic", nlgeom=NO, perturbation
  *steadystatedynamics, frequencyscale=LINEAR
  *steadystatedynamics, frequencyscale=LINEAR
  *cload, real
  *endstep



                            P R O B L E M   S I Z E


          NUMBER OF ELEMENTS IS                                    40
          NUMBER OF NODES IS                                      121
          NUMBER OF NODES DEFINED BY THE USER                      41
          NUMBER OF INTERNAL NODES GENERATED BY THE PROGRAM        80
          TOTAL NUMBER OF VARIABLES IN THE MODEL                  123
          (DEGREES OF FREEDOM PLUS MAX NO. OF ANY LAGRANGE MULTIPLIER
           VARIABLES. INCLUDE *PRINT,SOLVE=YES TO GET THE ACTUAL NUMBER.)



                              END OF USER INPUT PROCESSING



     JOB TIME SUMMARY
       USER TIME (SEC)      =   0.0000    
       SYSTEM TIME (SEC)    =  0.10000    
       TOTAL CPU TIME (SEC) =  0.10000    
       WALLCLOCK TIME (SEC) =          1
1

   Abaqus 6.14-1                                  Date 27-Jan-2016   Time 16:23:25
   For use by Supplied By SSQ under license from Dassault Systemes or its subsidiary.

                                                                                               STEP    1  INCREMENT    1
                                                                                          TIME COMPLETED IN THIS STEP   0.00    


                        S T E P       1     S T A T I C   A N A L Y S I S


                                                                                          

     AUTOMATIC TIME CONTROL WITH -
          A SUGGESTED INITIAL TIME INCREMENT OF                 1.00    
          AND A TOTAL TIME PERIOD OF                            1.00    
          THE MINIMUM TIME INCREMENT ALLOWED IS                1.000E-05
          THE MAXIMUM TIME INCREMENT ALLOWED IS                 1.00    

     LINEAR EQUATION SOLVER TYPE         DIRECT SPARSE



                    TOTAL MASS OF MODEL

                       6.777500    


                    LOCATION OF THE CENTER OF MASS OF THE MODEL

                     -5.0000012E-02       0.000000    


                    MOMENT OF INERTIA ABOUT THE ORIGIN
                           I(ZZ)

                      0.5838534    


                    PRODUCT OF INERTIA ABOUT THE ORIGIN
                           I(XY)

                       0.000000    


                    MOMENT OF INERTIA ABOUT THE CENTER OF MASS
                           I(ZZ)

                      0.5669096    


                    PRODUCT OF INERTIA ABOUT THE CENTER OF MASS
                           I(XY)

                       0.000000    
  
                   M E M O R Y   E S T I M A T E
  
 PROCESS      FLOATING PT       MINIMUM MEMORY        MEMORY TO
              OPERATIONS           REQUIRED          MINIMIZE I/O
             PER ITERATION           (MB)               (MB)
  
     1         6.78E+003               20                 26
  
 NOTE:
      (1) SINCE ABAQUS DOES NOT PRE-ALLOCATE MEMORY AND ONLY ALLOCATES MEMORY AS NEEDED DURING THE ANALYSIS,
          THE MEMORY REQUIREMENT PRINTED HERE CAN ONLY BE VIEWED AS A GENERAL GUIDELINE BASED ON THE BEST
          KNOWLEDGE AVAILABLE AT THE BEGINNING OF A STEP BEFORE THE SOLUTION PROCESS HAS BEGUN.
      (2) THE ESTIMATE IS NORMALLY UPDATED AT THE BEGINNING OF EVERY STEP. IT IS THE MAXIMUM VALUE OF THE
          ESTIMATE FROM THE CURRENT STEP TO THE LAST STEP OF THE ANALYSIS, WITH UNSYMMETRIC SOLUTION TAKEN
          INTO ACCOUNT IF APPLICABLE. 
      (3) SINCE THE ESTIMATE IS BASED ON THE ACTIVE DEGREES OF FREEDOM IN THE FIRST ITERATION OF THE 
          CURRENT STEP, THE MEMORY ESTIMATE MIGHT BE SIGNIFICANTLY DIFFERENT THAN ACTUAL USAGE FOR 
          PROBLEMS WITH SUBSTANTIAL CHANGES IN ACTIVE DEGREES OF FREEDOM BETWEEN STEPS (OR EVEN WITHIN
          THE SAME STEP). EXAMPLES ARE: PROBLEMS WITH SIGNIFICANT CONTACT CHANGES, PROBLEMS WITH MODEL
          CHANGE, PROBLEMS WITH BOTH STATIC STEP AND STEADY STATE DYNAMIC PROCEDURES WHERE ACOUSTIC 
          ELEMENTS WILL ONLY BE ACTIVATED IN THE STEADY STATE DYNAMIC STEPS.
      (4) FOR MULTI-PROCESS EXECUTION, THE ESTIMATED VALUE OF FLOATING POINT OPERATIONS FOR EACH PROCESS
          IS BASED ON AN INITIAL SCHEDULING OF OPERATIONS AND MIGHT NOT REFLECT THE ACTUAL FLOATING 
          POINT OPERATIONS COMPLETED ON EACH PROCESS. OPERATIONS ARE DYNAMICALLY BALANCED DURING EXECUTION, 
          SO THE ACTUAL BALANCE OF OPERATIONS BETWEEN PROCESSES IS EXPECTED TO BE BETTER THAN THE ESTIMATE
          PRINTED HERE.
      (5) THE UPPER LIMIT OF MEMORY THAT CAN BE ALLOCATED BY ABAQUS WILL IN GENERAL DEPEND ON THE VALUE OF
          THE "MEMORY" PARAMETER AND THE AMOUNT OF PHYSICAL MEMORY AVAILABLE ON THE MACHINE. PLEASE SEE
          THE "ABAQUS ANALYSIS USER'S MANUAL" FOR MORE DETAILS. THE ACTUAL USAGE OF MEMORY AND OF DISK
          SPACE FOR SCRATCH DATA WILL DEPEND ON THIS UPPER LIMIT AS WELL AS THE MEMORY REQUIRED TO MINIMIZE
          I/O. IF THE MEMORY UPPER LIMIT IS GREATER THAN THE MEMORY REQUIRED TO MINIMIZE I/O, THEN THE ACTUAL
          MEMORY USAGE WILL BE CLOSE TO THE ESTIMATED "MEMORY TO MINIMIZE I/O" VALUE, AND THE SCRATCH DISK
          USAGE WILL BE CLOSE-TO-ZERO; OTHERWISE, THE ACTUAL MEMORY USED WILL BE CLOSE TO THE PREVIOUSLY
          MENTIONED MEMORY LIMIT, AND THE SCRATCH DISK USAGE WILL BE ROUGHLY PROPORTIONAL TO THE DIFFERENCE
          BETWEEN THE ESTIMATED "MEMORY TO MINIMIZE I/O" AND THE MEMORY UPPER LIMIT. HOWEVER ACCURATE
          ESTIMATE OF THE SCRATCH DISK SPACE IS NOT POSSIBLE.
      (6) USING "*RESTART, WRITE" CAN GENERATE A LARGE AMOUNT OF DATA WRITTEN IN THE WORK DIRECTORY.
1

   Abaqus 6.14-1                                  Date 27-Jan-2016   Time 16:23:25
   For use by Supplied By SSQ under license from Dassault Systemes or its subsidiary.

                                                                                               STEP    2  INCREMENT    1
                                                                                          TIME COMPLETED IN THIS STEP   0.00    


                        S T E P       2     C A L C U L A T I O N   O F   E I G E N V A L U E S

                                            F O R   N A T U R A L   F R E Q U E N C I E S



                                                                                          

     THE LANCZOS EIGENSOLVER IS USED FOR THIS ANALYSIS
     Abaqus WILL COMPUTE UNCOUPLED
      STRUCTURAL AND ACOUSTIC MODES
     NUMBER OF EIGENVALUES                      6
     HIGHEST FREQUENCY OF INTEREST                   3000.0    
     MAXIMUM NUMBER OF STEPS WITHIN RUN               35
     BLOCK SIZE FOR LANCZOS PROCEDURE                  6
     THE EIGENVECTORS ARE SCALED SO THAT 
      THE LARGEST DISPLACEMENT ENTRY IN EACH VECTOR
      IS UNITY

     THIS IS A LINEAR PERTURBATION STEP.
     ALL LOADS ARE DEFINED AS CHANGE IN LOAD TO THE REFERENCE STATE
  
                   M E M O R Y   E S T I M A T E
  
 PROCESS      FLOATING PT       MINIMUM MEMORY        MEMORY TO
              OPERATIONS           REQUIRED          MINIMIZE I/O
             PER ITERATION           (MB)               (MB)
  
     1         6.78E+003               19                 25
  
 NOTE:
      (1) SINCE ABAQUS DOES NOT PRE-ALLOCATE MEMORY AND ONLY ALLOCATES MEMORY AS NEEDED DURING THE ANALYSIS,
          THE MEMORY REQUIREMENT PRINTED HERE CAN ONLY BE VIEWED AS A GENERAL GUIDELINE BASED ON THE BEST
          KNOWLEDGE AVAILABLE AT THE BEGINNING OF A STEP BEFORE THE SOLUTION PROCESS HAS BEGUN.
      (2) THE ESTIMATE IS NORMALLY UPDATED AT THE BEGINNING OF EVERY STEP. IT IS THE MAXIMUM VALUE OF THE
          ESTIMATE FROM THE CURRENT STEP TO THE LAST STEP OF THE ANALYSIS, WITH UNSYMMETRIC SOLUTION TAKEN
          INTO ACCOUNT IF APPLICABLE. 
      (3) SINCE THE ESTIMATE IS BASED ON THE ACTIVE DEGREES OF FREEDOM IN THE FIRST ITERATION OF THE 
          CURRENT STEP, THE MEMORY ESTIMATE MIGHT BE SIGNIFICANTLY DIFFERENT THAN ACTUAL USAGE FOR 
          PROBLEMS WITH SUBSTANTIAL CHANGES IN ACTIVE DEGREES OF FREEDOM BETWEEN STEPS (OR EVEN WITHIN
          THE SAME STEP). EXAMPLES ARE: PROBLEMS WITH SIGNIFICANT CONTACT CHANGES, PROBLEMS WITH MODEL
          CHANGE, PROBLEMS WITH BOTH STATIC STEP AND STEADY STATE DYNAMIC PROCEDURES WHERE ACOUSTIC 
          ELEMENTS WILL ONLY BE ACTIVATED IN THE STEADY STATE DYNAMIC STEPS.
      (4) FOR MULTI-PROCESS EXECUTION, THE ESTIMATED VALUE OF FLOATING POINT OPERATIONS FOR EACH PROCESS
          IS BASED ON AN INITIAL SCHEDULING OF OPERATIONS AND MIGHT NOT REFLECT THE ACTUAL FLOATING 
          POINT OPERATIONS COMPLETED ON EACH PROCESS. OPERATIONS ARE DYNAMICALLY BALANCED DURING EXECUTION, 
          SO THE ACTUAL BALANCE OF OPERATIONS BETWEEN PROCESSES IS EXPECTED TO BE BETTER THAN THE ESTIMATE
          PRINTED HERE.
      (5) THE UPPER LIMIT OF MEMORY THAT CAN BE ALLOCATED BY ABAQUS WILL IN GENERAL DEPEND ON THE VALUE OF
          THE "MEMORY" PARAMETER AND THE AMOUNT OF PHYSICAL MEMORY AVAILABLE ON THE MACHINE. PLEASE SEE
          THE "ABAQUS ANALYSIS USER'S MANUAL" FOR MORE DETAILS. THE ACTUAL USAGE OF MEMORY AND OF DISK
          SPACE FOR SCRATCH DATA WILL DEPEND ON THIS UPPER LIMIT AS WELL AS THE MEMORY REQUIRED TO MINIMIZE
          I/O. IF THE MEMORY UPPER LIMIT IS GREATER THAN THE MEMORY REQUIRED TO MINIMIZE I/O, THEN THE ACTUAL
          MEMORY USAGE WILL BE CLOSE TO THE ESTIMATED "MEMORY TO MINIMIZE I/O" VALUE, AND THE SCRATCH DISK
          USAGE WILL BE CLOSE-TO-ZERO; OTHERWISE, THE ACTUAL MEMORY USED WILL BE CLOSE TO THE PREVIOUSLY
          MENTIONED MEMORY LIMIT, AND THE SCRATCH DISK USAGE WILL BE ROUGHLY PROPORTIONAL TO THE DIFFERENCE
          BETWEEN THE ESTIMATED "MEMORY TO MINIMIZE I/O" AND THE MEMORY UPPER LIMIT. HOWEVER ACCURATE
          ESTIMATE OF THE SCRATCH DISK SPACE IS NOT POSSIBLE.
      (6) USING "*RESTART, WRITE" CAN GENERATE A LARGE AMOUNT OF DATA WRITTEN IN THE WORK DIRECTORY.


                              E I G E N V A L U E    O U T P U T     

 MODE NO      EIGENVALUE              FREQUENCY         GENERALIZED MASS   COMPOSITE MODAL DAMPING            
                             (RAD/TIME)   (CYCLES/TIME)


       1       65162.         255.27         40.627         1.6992         0.0000    
       2      2.49706E+06     1580.2         251.50         1.7311         0.0000    
       3      1.88615E+07     4343.0         691.21         1.7831         0.0000    
       4      6.27009E+07     7918.4         1260.3         3.3888         0.0000    
       5      6.88133E+07     8295.4         1320.3         1.8577         0.0000    
       6      1.76759E+08     13295.         2116.0         1.9515         0.0000    


          P A R T I C I P A T I O N   F A C T O R S

 MODE NO    X-COMPONENT    Y-COMPONENT    Z-COMPONENT    X-ROTATION     Y-ROTATION     Z-ROTATION 

       1     -1.63990E-16     1.5636         0.0000         0.0000         0.0000        0.27664    
       2      5.84199E-17   -0.86127         0.0000         0.0000         0.0000        0.29410    
       3     -2.00310E-15    0.49904         0.0000         0.0000         0.0000       -0.21145    
       4       1.2731        7.47465E-14     0.0000         0.0000         0.0000       -3.87547E-14
       5      1.91619E-13   -0.35139         0.0000         0.0000         0.0000        0.16193    
       6      1.18256E-12    0.26813         0.0000         0.0000         0.0000       -0.12914    


                    E F F E C T I V E   M A S S

 MODE NO    X-COMPONENT    Y-COMPONENT    Z-COMPONENT    X-ROTATION     Y-ROTATION     Z-ROTATION 

       1      4.56960E-32     4.1544         0.0000         0.0000         0.0000        0.13004    
       2      5.90820E-33     1.2841         0.0000         0.0000         0.0000        0.14974    
       3      7.15445E-30    0.44407         0.0000         0.0000         0.0000        7.97244E-02
       4       5.4922        1.89331E-26     0.0000         0.0000         0.0000        5.08965E-27
       5      6.82091E-26    0.22938         0.0000         0.0000         0.0000        4.87130E-02
       6      2.72903E-24    0.14029         0.0000         0.0000         0.0000        3.25445E-02

 TOTAL         5.4922         6.2522         0.0000         0.0000         0.0000        0.44076    
1

   Abaqus 6.14-1                                  Date 27-Jan-2016   Time 16:23:25
   For use by Supplied By SSQ under license from Dassault Systemes or its subsidiary.

                                                                                               STEP    3  INCREMENT    1
                                                                                          TIME COMPLETED IN THIS STEP   0.00    


                        S T E P       3     S T E A D Y   S T A T E   A N A L Y S I S                


                                                                                          
          FULL STRUCTURAL-ACOUSTIC COUPLING IS USED IN THIS
          FORCED RESPONSE ANALYSIS
          FREQUENCY RANGE DEFINITIONS (CYCLES/TIME)
                LOW         HIGH        POINTS        BIAS     SCALE FACTOR  TYPE OF SCALING


              1.505E-08     300.          700         1.00         1.00       Linear          
          INTERVAL WILL BE DIVIDED FIRST USING EIGENFREQUENCIES.


     THIS IS A LINEAR PERTURBATION STEP.
     ALL LOADS ARE DEFINED AS CHANGE IN LOAD TO THE REFERENCE STATE
  
                   M E M O R Y   E S T I M A T E
  
 PROCESS      FLOATING PT       MINIMUM MEMORY        MEMORY TO
              OPERATIONS           REQUIRED          MINIMIZE I/O
             PER ITERATION           (MB)               (MB)
  
     1         0.00E+000               16                 16
  
 NOTE:
      (1) SINCE ABAQUS DOES NOT PRE-ALLOCATE MEMORY AND ONLY ALLOCATES MEMORY AS NEEDED DURING THE ANALYSIS,
          THE MEMORY REQUIREMENT PRINTED HERE CAN ONLY BE VIEWED AS A GENERAL GUIDELINE BASED ON THE BEST
          KNOWLEDGE AVAILABLE AT THE BEGINNING OF A STEP BEFORE THE SOLUTION PROCESS HAS BEGUN.
      (2) THE ESTIMATE IS NORMALLY UPDATED AT THE BEGINNING OF EVERY STEP. IT IS THE MAXIMUM VALUE OF THE
          ESTIMATE FROM THE CURRENT STEP TO THE LAST STEP OF THE ANALYSIS, WITH UNSYMMETRIC SOLUTION TAKEN
          INTO ACCOUNT IF APPLICABLE. 
      (3) SINCE THE ESTIMATE IS BASED ON THE ACTIVE DEGREES OF FREEDOM IN THE FIRST ITERATION OF THE 
          CURRENT STEP, THE MEMORY ESTIMATE MIGHT BE SIGNIFICANTLY DIFFERENT THAN ACTUAL USAGE FOR 
          PROBLEMS WITH SUBSTANTIAL CHANGES IN ACTIVE DEGREES OF FREEDOM BETWEEN STEPS (OR EVEN WITHIN
          THE SAME STEP). EXAMPLES ARE: PROBLEMS WITH SIGNIFICANT CONTACT CHANGES, PROBLEMS WITH MODEL
          CHANGE, PROBLEMS WITH BOTH STATIC STEP AND STEADY STATE DYNAMIC PROCEDURES WHERE ACOUSTIC 
          ELEMENTS WILL ONLY BE ACTIVATED IN THE STEADY STATE DYNAMIC STEPS.
      (4) FOR MULTI-PROCESS EXECUTION, THE ESTIMATED VALUE OF FLOATING POINT OPERATIONS FOR EACH PROCESS
          IS BASED ON AN INITIAL SCHEDULING OF OPERATIONS AND MIGHT NOT REFLECT THE ACTUAL FLOATING 
          POINT OPERATIONS COMPLETED ON EACH PROCESS. OPERATIONS ARE DYNAMICALLY BALANCED DURING EXECUTION, 
          SO THE ACTUAL BALANCE OF OPERATIONS BETWEEN PROCESSES IS EXPECTED TO BE BETTER THAN THE ESTIMATE
          PRINTED HERE.
      (5) THE UPPER LIMIT OF MEMORY THAT CAN BE ALLOCATED BY ABAQUS WILL IN GENERAL DEPEND ON THE VALUE OF
          THE "MEMORY" PARAMETER AND THE AMOUNT OF PHYSICAL MEMORY AVAILABLE ON THE MACHINE. PLEASE SEE
          THE "ABAQUS ANALYSIS USER'S MANUAL" FOR MORE DETAILS. THE ACTUAL USAGE OF MEMORY AND OF DISK
          SPACE FOR SCRATCH DATA WILL DEPEND ON THIS UPPER LIMIT AS WELL AS THE MEMORY REQUIRED TO MINIMIZE
          I/O. IF THE MEMORY UPPER LIMIT IS GREATER THAN THE MEMORY REQUIRED TO MINIMIZE I/O, THEN THE ACTUAL
          MEMORY USAGE WILL BE CLOSE TO THE ESTIMATED "MEMORY TO MINIMIZE I/O" VALUE, AND THE SCRATCH DISK
          USAGE WILL BE CLOSE-TO-ZERO; OTHERWISE, THE ACTUAL MEMORY USED WILL BE CLOSE TO THE PREVIOUSLY
          MENTIONED MEMORY LIMIT, AND THE SCRATCH DISK USAGE WILL BE ROUGHLY PROPORTIONAL TO THE DIFFERENCE
          BETWEEN THE ESTIMATED "MEMORY TO MINIMIZE I/O" AND THE MEMORY UPPER LIMIT. HOWEVER ACCURATE
          ESTIMATE OF THE SCRATCH DISK SPACE IS NOT POSSIBLE.
      (6) USING "*RESTART, WRITE" CAN GENERATE A LARGE AMOUNT OF DATA WRITTEN IN THE WORK DIRECTORY.


                              INCREMENT NUMBER     1
                              FREQUENCY =  1.50486611E-08



                              INCREMENT NUMBER     2
                              FREQUENCY =  5.81218406E-02



                              INCREMENT NUMBER     3
                              FREQUENCY =  0.11624367    



                              INCREMENT NUMBER     4
                              FREQUENCY =  0.17436549    



                              INCREMENT NUMBER     5
                              FREQUENCY =  0.23248732    



                              INCREMENT NUMBER     6
                              FREQUENCY =  0.29060914    



                              INCREMENT NUMBER     7
                              FREQUENCY =  0.34873097    



                              INCREMENT NUMBER     8
                              FREQUENCY =  0.40685279    



                              INCREMENT NUMBER     9
                              FREQUENCY =  0.46497462    



                              INCREMENT NUMBER    10
                              FREQUENCY =  0.52309644    



                              INCREMENT NUMBER    11
                              FREQUENCY =  0.58121827    



                              INCREMENT NUMBER    12
                              FREQUENCY =  0.63934010    



                              INCREMENT NUMBER    13
                              FREQUENCY =  0.69746192    



                              INCREMENT NUMBER    14
                              FREQUENCY =  0.75558375    



                              INCREMENT NUMBER    15
                              FREQUENCY =  0.81370557    



                              INCREMENT NUMBER    16
                              FREQUENCY =  0.87182740    



                              INCREMENT NUMBER    17
                              FREQUENCY =  0.92994922    



                              INCREMENT NUMBER    18
                              FREQUENCY =  0.98807105    



                              INCREMENT NUMBER    19
                              FREQUENCY =   1.0461929    



                              INCREMENT NUMBER    20
                              FREQUENCY =   1.1043147    



                              INCREMENT NUMBER    21
                              FREQUENCY =   1.1624365    



                              INCREMENT NUMBER    22
                              FREQUENCY =   1.2205584    



                              INCREMENT NUMBER    23
                              FREQUENCY =   1.2786802    



                              INCREMENT NUMBER    24
                              FREQUENCY =   1.3368020    



                              INCREMENT NUMBER    25
                              FREQUENCY =   1.3949238    



                              INCREMENT NUMBER    26
                              FREQUENCY =   1.4530457    



                              INCREMENT NUMBER    27
                              FREQUENCY =   1.5111675    



                              INCREMENT NUMBER    28
                              FREQUENCY =   1.5692893    



                              INCREMENT NUMBER    29
                              FREQUENCY =   1.6274111    



                              INCREMENT NUMBER    30
                              FREQUENCY =   1.6855330    



                              INCREMENT NUMBER    31
                              FREQUENCY =   1.7436548    



                              INCREMENT NUMBER    32
                              FREQUENCY =   1.8017766    



                              INCREMENT NUMBER    33
                              FREQUENCY =   1.8598984    



                              INCREMENT NUMBER    34
                              FREQUENCY =   1.9180203    



                              INCREMENT NUMBER    35
                              FREQUENCY =   1.9761421    



                              INCREMENT NUMBER    36
                              FREQUENCY =   2.0342639    



                              INCREMENT NUMBER    37
                              FREQUENCY =   2.0923857    



                              INCREMENT NUMBER    38
                              FREQUENCY =   2.1505076    



                              INCREMENT NUMBER    39
                              FREQUENCY =   2.2086294    



                              INCREMENT NUMBER    40
                              FREQUENCY =   2.2667512    



                              INCREMENT NUMBER    41
                              FREQUENCY =   2.3248730    



                              INCREMENT NUMBER    42
                              FREQUENCY =   2.3829949    



                              INCREMENT NUMBER    43
                              FREQUENCY =   2.4411167    



                              INCREMENT NUMBER    44
                              FREQUENCY =   2.4992385    



                              INCREMENT NUMBER    45
                              FREQUENCY =   2.5573603    



                              INCREMENT NUMBER    46
                              FREQUENCY =   2.6154822    



                              INCREMENT NUMBER    47
                              FREQUENCY =   2.6736040    



                              INCREMENT NUMBER    48
                              FREQUENCY =   2.7317258    



                              INCREMENT NUMBER    49
                              FREQUENCY =   2.7898476    



                              INCREMENT NUMBER    50
                              FREQUENCY =   2.8479695    



                              INCREMENT NUMBER    51
                              FREQUENCY =   2.9060913    



                              INCREMENT NUMBER    52
                              FREQUENCY =   2.9642131    



                              INCREMENT NUMBER    53
                              FREQUENCY =   3.0223349    



                              INCREMENT NUMBER    54
                              FREQUENCY =   3.0804568    



                              INCREMENT NUMBER    55
                              FREQUENCY =   3.1385786    



                              INCREMENT NUMBER    56
                              FREQUENCY =   3.1967004    



                              INCREMENT NUMBER    57
                              FREQUENCY =   3.2548222    



                              INCREMENT NUMBER    58
                              FREQUENCY =   3.3129441    



                              INCREMENT NUMBER    59
                              FREQUENCY =   3.3710659    



                              INCREMENT NUMBER    60
                              FREQUENCY =   3.4291877    



                              INCREMENT NUMBER    61
                              FREQUENCY =   3.4873095    



                              INCREMENT NUMBER    62
                              FREQUENCY =   3.5454314    



                              INCREMENT NUMBER    63
                              FREQUENCY =   3.6035532    



                              INCREMENT NUMBER    64
                              FREQUENCY =   3.6616750    



                              INCREMENT NUMBER    65
                              FREQUENCY =   3.7197968    



                              INCREMENT NUMBER    66
                              FREQUENCY =   3.7779187    



                              INCREMENT NUMBER    67
                              FREQUENCY =   3.8360405    



                              INCREMENT NUMBER    68
                              FREQUENCY =   3.8941623    



                              INCREMENT NUMBER    69
                              FREQUENCY =   3.9522841    



                              INCREMENT NUMBER    70
                              FREQUENCY =   4.0104060    



                              INCREMENT NUMBER    71
                              FREQUENCY =   4.0685278    



                              INCREMENT NUMBER    72
                              FREQUENCY =   4.1266496    



                              INCREMENT NUMBER    73
                              FREQUENCY =   4.1847715    



                              INCREMENT NUMBER    74
                              FREQUENCY =   4.2428933    



                              INCREMENT NUMBER    75
                              FREQUENCY =   4.3010151    



                              INCREMENT NUMBER    76
                              FREQUENCY =   4.3591369    



                              INCREMENT NUMBER    77
                              FREQUENCY =   4.4172588    



                              INCREMENT NUMBER    78
                              FREQUENCY =   4.4753806    



                              INCREMENT NUMBER    79
                              FREQUENCY =   4.5335024    



                              INCREMENT NUMBER    80
                              FREQUENCY =   4.5916242    



                              INCREMENT NUMBER    81
                              FREQUENCY =   4.6497461    



                              INCREMENT NUMBER    82
                              FREQUENCY =   4.7078679    



                              INCREMENT NUMBER    83
                              FREQUENCY =   4.7659897    



                              INCREMENT NUMBER    84
                              FREQUENCY =   4.8241115    



                              INCREMENT NUMBER    85
                              FREQUENCY =   4.8822334    



                              INCREMENT NUMBER    86
                              FREQUENCY =   4.9403552    



                              INCREMENT NUMBER    87
                              FREQUENCY =   4.9984770    



                              INCREMENT NUMBER    88
                              FREQUENCY =   5.0565988    



                              INCREMENT NUMBER    89
                              FREQUENCY =   5.1147207    



                              INCREMENT NUMBER    90
                              FREQUENCY =   5.1728425    



                              INCREMENT NUMBER    91
                              FREQUENCY =   5.2309643    



                              INCREMENT NUMBER    92
                              FREQUENCY =   5.2890861    



                              INCREMENT NUMBER    93
                              FREQUENCY =   5.3472080    



                              INCREMENT NUMBER    94
                              FREQUENCY =   5.4053298    



                              INCREMENT NUMBER    95
                              FREQUENCY =   5.4634516    



                              INCREMENT NUMBER    96
                              FREQUENCY =   5.5215734    



                              INCREMENT NUMBER    97
                              FREQUENCY =   5.5796953    



                              INCREMENT NUMBER    98
                              FREQUENCY =   5.6378171    



                              INCREMENT NUMBER    99
                              FREQUENCY =   5.6959389    



                              INCREMENT NUMBER   100
                              FREQUENCY =   5.7540607    



                              INCREMENT NUMBER   101
                              FREQUENCY =   5.8121826    



                              INCREMENT NUMBER   102
                              FREQUENCY =   5.8703044    



                              INCREMENT NUMBER   103
                              FREQUENCY =   5.9284262    



                              INCREMENT NUMBER   104
                              FREQUENCY =   5.9865480    



                              INCREMENT NUMBER   105
                              FREQUENCY =   6.0446699    



                              INCREMENT NUMBER   106
                              FREQUENCY =   6.1027917    



                              INCREMENT NUMBER   107
                              FREQUENCY =   6.1609135    



                              INCREMENT NUMBER   108
                              FREQUENCY =   6.2190353    



                              INCREMENT NUMBER   109
                              FREQUENCY =   6.2771572    



                              INCREMENT NUMBER   110
                              FREQUENCY =   6.3352790    



                              INCREMENT NUMBER   111
                              FREQUENCY =   6.3934008    



                              INCREMENT NUMBER   112
                              FREQUENCY =   6.4515226    



                              INCREMENT NUMBER   113
                              FREQUENCY =   6.5096445    



                              INCREMENT NUMBER   114
                              FREQUENCY =   6.5677663    



                              INCREMENT NUMBER   115
                              FREQUENCY =   6.6258881    



                              INCREMENT NUMBER   116
                              FREQUENCY =   6.6840099    



                              INCREMENT NUMBER   117
                              FREQUENCY =   6.7421318    



                              INCREMENT NUMBER   118
                              FREQUENCY =   6.8002536    



                              INCREMENT NUMBER   119
                              FREQUENCY =   6.8583754    



                              INCREMENT NUMBER   120
                              FREQUENCY =   6.9164972    



                              INCREMENT NUMBER   121
                              FREQUENCY =   6.9746191    



                              INCREMENT NUMBER   122
                              FREQUENCY =   7.0327409    



                              INCREMENT NUMBER   123
                              FREQUENCY =   7.0908627    



                              INCREMENT NUMBER   124
                              FREQUENCY =   7.1489846    



                              INCREMENT NUMBER   125
                              FREQUENCY =   7.2071064    



                              INCREMENT NUMBER   126
                              FREQUENCY =   7.2652282    



                              INCREMENT NUMBER   127
                              FREQUENCY =   7.3233500    



                              INCREMENT NUMBER   128
                              FREQUENCY =   7.3814719    



                              INCREMENT NUMBER   129
                              FREQUENCY =   7.4395937    



                              INCREMENT NUMBER   130
                              FREQUENCY =   7.4977155    



                              INCREMENT NUMBER   131
                              FREQUENCY =   7.5558373    



                              INCREMENT NUMBER   132
                              FREQUENCY =   7.6139592    



                              INCREMENT NUMBER   133
                              FREQUENCY =   7.6720810    



                              INCREMENT NUMBER   134
                              FREQUENCY =   7.7302028    



                              INCREMENT NUMBER   135
                              FREQUENCY =   7.7883246    



                              INCREMENT NUMBER   136
                              FREQUENCY =   7.8464465    



                              INCREMENT NUMBER   137
                              FREQUENCY =   7.9045683    



                              INCREMENT NUMBER   138
                              FREQUENCY =   7.9626901    



                              INCREMENT NUMBER   139
                              FREQUENCY =   8.0208119    



                              INCREMENT NUMBER   140
                              FREQUENCY =   8.0789338    



                              INCREMENT NUMBER   141
                              FREQUENCY =   8.1370556    



                              INCREMENT NUMBER   142
                              FREQUENCY =   8.1951774    



                              INCREMENT NUMBER   143
                              FREQUENCY =   8.2532992    



                              INCREMENT NUMBER   144
                              FREQUENCY =   8.3114211    



                              INCREMENT NUMBER   145
                              FREQUENCY =   8.3695429    



                              INCREMENT NUMBER   146
                              FREQUENCY =   8.4276647    



                              INCREMENT NUMBER   147
                              FREQUENCY =   8.4857865    



                              INCREMENT NUMBER   148
                              FREQUENCY =   8.5439084    



                              INCREMENT NUMBER   149
                              FREQUENCY =   8.6020302    



                              INCREMENT NUMBER   150
                              FREQUENCY =   8.6601520    



                              INCREMENT NUMBER   151
                              FREQUENCY =   8.7182738    



                              INCREMENT NUMBER   152
                              FREQUENCY =   8.7763957    



                              INCREMENT NUMBER   153
                              FREQUENCY =   8.8345175    



                              INCREMENT NUMBER   154
                              FREQUENCY =   8.8926393    



                              INCREMENT NUMBER   155
                              FREQUENCY =   8.9507611    



                              INCREMENT NUMBER   156
                              FREQUENCY =   9.0088830    



                              INCREMENT NUMBER   157
                              FREQUENCY =   9.0670048    



                              INCREMENT NUMBER   158
                              FREQUENCY =   9.1251266    



                              INCREMENT NUMBER   159
                              FREQUENCY =   9.1832484    



                              INCREMENT NUMBER   160
                              FREQUENCY =   9.2413703    



                              INCREMENT NUMBER   161
                              FREQUENCY =   9.2994921    



                              INCREMENT NUMBER   162
                              FREQUENCY =   9.3576139    



                              INCREMENT NUMBER   163
                              FREQUENCY =   9.4157357    



                              INCREMENT NUMBER   164
                              FREQUENCY =   9.4738576    



                              INCREMENT NUMBER   165
                              FREQUENCY =   9.5319794    



                              INCREMENT NUMBER   166
                              FREQUENCY =   9.5901012    



                              INCREMENT NUMBER   167
                              FREQUENCY =   9.6482230    



                              INCREMENT NUMBER   168
                              FREQUENCY =   9.7063449    



                              INCREMENT NUMBER   169
                              FREQUENCY =   9.7644667    



                              INCREMENT NUMBER   170
                              FREQUENCY =   9.8225885    



                              INCREMENT NUMBER   171
                              FREQUENCY =   9.8807104    



                              INCREMENT NUMBER   172
                              FREQUENCY =   9.9388322    



                              INCREMENT NUMBER   173
                              FREQUENCY =   9.9969540    



                              INCREMENT NUMBER   174
                              FREQUENCY =   10.055076    



                              INCREMENT NUMBER   175
                              FREQUENCY =   10.113198    



                              INCREMENT NUMBER   176
                              FREQUENCY =   10.171319    



                              INCREMENT NUMBER   177
                              FREQUENCY =   10.229441    



                              INCREMENT NUMBER   178
                              FREQUENCY =   10.287563    



                              INCREMENT NUMBER   179
                              FREQUENCY =   10.345685    



                              INCREMENT NUMBER   180
                              FREQUENCY =   10.403807    



                              INCREMENT NUMBER   181
                              FREQUENCY =   10.461929    



                              INCREMENT NUMBER   182
                              FREQUENCY =   10.520050    



                              INCREMENT NUMBER   183
                              FREQUENCY =   10.578172    



                              INCREMENT NUMBER   184
                              FREQUENCY =   10.636294    



                              INCREMENT NUMBER   185
                              FREQUENCY =   10.694416    



                              INCREMENT NUMBER   186
                              FREQUENCY =   10.752538    



                              INCREMENT NUMBER   187
                              FREQUENCY =   10.810660    



                              INCREMENT NUMBER   188
                              FREQUENCY =   10.868781    



                              INCREMENT NUMBER   189
                              FREQUENCY =   10.926903    



                              INCREMENT NUMBER   190
                              FREQUENCY =   10.985025    



                              INCREMENT NUMBER   191
                              FREQUENCY =   11.043147    



                              INCREMENT NUMBER   192
                              FREQUENCY =   11.101269    



                              INCREMENT NUMBER   193
                              FREQUENCY =   11.159391    



                              INCREMENT NUMBER   194
                              FREQUENCY =   11.217512    



                              INCREMENT NUMBER   195
                              FREQUENCY =   11.275634    



                              INCREMENT NUMBER   196
                              FREQUENCY =   11.333756    



                              INCREMENT NUMBER   197
                              FREQUENCY =   11.391878    



                              INCREMENT NUMBER   198
                              FREQUENCY =   11.450000    



                              INCREMENT NUMBER   199
                              FREQUENCY =   11.508121    



                              INCREMENT NUMBER   200
                              FREQUENCY =   11.566243    



                              INCREMENT NUMBER   201
                              FREQUENCY =   11.624365    



                              INCREMENT NUMBER   202
                              FREQUENCY =   11.682487    



                              INCREMENT NUMBER   203
                              FREQUENCY =   11.740609    



                              INCREMENT NUMBER   204
                              FREQUENCY =   11.798731    



                              INCREMENT NUMBER   205
                              FREQUENCY =   11.856852    



                              INCREMENT NUMBER   206
                              FREQUENCY =   11.914974    



                              INCREMENT NUMBER   207
                              FREQUENCY =   11.973096    



                              INCREMENT NUMBER   208
                              FREQUENCY =   12.031218    



                              INCREMENT NUMBER   209
                              FREQUENCY =   12.089340    



                              INCREMENT NUMBER   210
                              FREQUENCY =   12.147462    



                              INCREMENT NUMBER   211
                              FREQUENCY =   12.205583    



                              INCREMENT NUMBER   212
                              FREQUENCY =   12.263705    



                              INCREMENT NUMBER   213
                              FREQUENCY =   12.321827    



                              INCREMENT NUMBER   214
                              FREQUENCY =   12.379949    



                              INCREMENT NUMBER   215
                              FREQUENCY =   12.438071    



                              INCREMENT NUMBER   216
                              FREQUENCY =   12.496192    



                              INCREMENT NUMBER   217
                              FREQUENCY =   12.554314    



                              INCREMENT NUMBER   218
                              FREQUENCY =   12.612436    



                              INCREMENT NUMBER   219
                              FREQUENCY =   12.670558    



                              INCREMENT NUMBER   220
                              FREQUENCY =   12.728680    



                              INCREMENT NUMBER   221
                              FREQUENCY =   12.786802    



                              INCREMENT NUMBER   222
                              FREQUENCY =   12.844923    



                              INCREMENT NUMBER   223
                              FREQUENCY =   12.903045    



                              INCREMENT NUMBER   224
                              FREQUENCY =   12.961167    



                              INCREMENT NUMBER   225
                              FREQUENCY =   13.019289    



                              INCREMENT NUMBER   226
                              FREQUENCY =   13.077411    



                              INCREMENT NUMBER   227
                              FREQUENCY =   13.135533    



                              INCREMENT NUMBER   228
                              FREQUENCY =   13.193654    



                              INCREMENT NUMBER   229
                              FREQUENCY =   13.251776    



                              INCREMENT NUMBER   230
                              FREQUENCY =   13.309898    



                              INCREMENT NUMBER   231
                              FREQUENCY =   13.368020    



                              INCREMENT NUMBER   232
                              FREQUENCY =   13.426142    



                              INCREMENT NUMBER   233
                              FREQUENCY =   13.484264    



                              INCREMENT NUMBER   234
                              FREQUENCY =   13.542385    



                              INCREMENT NUMBER   235
                              FREQUENCY =   13.600507    



                              INCREMENT NUMBER   236
                              FREQUENCY =   13.658629    



                              INCREMENT NUMBER   237
                              FREQUENCY =   13.716751    



                              INCREMENT NUMBER   238
                              FREQUENCY =   13.774873    



                              INCREMENT NUMBER   239
                              FREQUENCY =   13.832994    



                              INCREMENT NUMBER   240
                              FREQUENCY =   13.891116    



                              INCREMENT NUMBER   241
                              FREQUENCY =   13.949238    



                              INCREMENT NUMBER   242
                              FREQUENCY =   14.007360    



                              INCREMENT NUMBER   243
                              FREQUENCY =   14.065482    



                              INCREMENT NUMBER   244
                              FREQUENCY =   14.123604    



                              INCREMENT NUMBER   245
                              FREQUENCY =   14.181725    



                              INCREMENT NUMBER   246
                              FREQUENCY =   14.239847    



                              INCREMENT NUMBER   247
                              FREQUENCY =   14.297969    



                              INCREMENT NUMBER   248
                              FREQUENCY =   14.356091    



                              INCREMENT NUMBER   249
                              FREQUENCY =   14.414213    



                              INCREMENT NUMBER   250
                              FREQUENCY =   14.472335    



                              INCREMENT NUMBER   251
                              FREQUENCY =   14.530456    



                              INCREMENT NUMBER   252
                              FREQUENCY =   14.588578    



                              INCREMENT NUMBER   253
                              FREQUENCY =   14.646700    



                              INCREMENT NUMBER   254
                              FREQUENCY =   14.704822    



                              INCREMENT NUMBER   255
                              FREQUENCY =   14.762944    



                              INCREMENT NUMBER   256
                              FREQUENCY =   14.821066    



                              INCREMENT NUMBER   257
                              FREQUENCY =   14.879187    



                              INCREMENT NUMBER   258
                              FREQUENCY =   14.937309    



                              INCREMENT NUMBER   259
                              FREQUENCY =   14.995431    



                              INCREMENT NUMBER   260
                              FREQUENCY =   15.053553    



                              INCREMENT NUMBER   261
                              FREQUENCY =   15.111675    



                              INCREMENT NUMBER   262
                              FREQUENCY =   15.169796    



                              INCREMENT NUMBER   263
                              FREQUENCY =   15.227918    



                              INCREMENT NUMBER   264
                              FREQUENCY =   15.286040    



                              INCREMENT NUMBER   265
                              FREQUENCY =   15.344162    



                              INCREMENT NUMBER   266
                              FREQUENCY =   15.402284    



                              INCREMENT NUMBER   267
                              FREQUENCY =   15.460406    



                              INCREMENT NUMBER   268
                              FREQUENCY =   15.518527    



                              INCREMENT NUMBER   269
                              FREQUENCY =   15.576649    



                              INCREMENT NUMBER   270
                              FREQUENCY =   15.634771    



                              INCREMENT NUMBER   271
                              FREQUENCY =   15.692893    



                              INCREMENT NUMBER   272
                              FREQUENCY =   15.751015    



                              INCREMENT NUMBER   273
                              FREQUENCY =   15.809137    



                              INCREMENT NUMBER   274
                              FREQUENCY =   15.867258    



                              INCREMENT NUMBER   275
                              FREQUENCY =   15.925380    



                              INCREMENT NUMBER   276
                              FREQUENCY =   15.983502    



                              INCREMENT NUMBER   277
                              FREQUENCY =   16.041624    



                              INCREMENT NUMBER   278
                              FREQUENCY =   16.099746    



                              INCREMENT NUMBER   279
                              FREQUENCY =   16.157868    



                              INCREMENT NUMBER   280
                              FREQUENCY =   16.215989    



                              INCREMENT NUMBER   281
                              FREQUENCY =   16.274111    



                              INCREMENT NUMBER   282
                              FREQUENCY =   16.332233    



                              INCREMENT NUMBER   283
                              FREQUENCY =   16.390355    



                              INCREMENT NUMBER   284
                              FREQUENCY =   16.448477    



                              INCREMENT NUMBER   285
                              FREQUENCY =   16.506598    



                              INCREMENT NUMBER   286
                              FREQUENCY =   16.564720    



                              INCREMENT NUMBER   287
                              FREQUENCY =   16.622842    



                              INCREMENT NUMBER   288
                              FREQUENCY =   16.680964    



                              INCREMENT NUMBER   289
                              FREQUENCY =   16.739086    



                              INCREMENT NUMBER   290
                              FREQUENCY =   16.797208    



                              INCREMENT NUMBER   291
                              FREQUENCY =   16.855329    



                              INCREMENT NUMBER   292
                              FREQUENCY =   16.913451    



                              INCREMENT NUMBER   293
                              FREQUENCY =   16.971573    



                              INCREMENT NUMBER   294
                              FREQUENCY =   17.029695    



                              INCREMENT NUMBER   295
                              FREQUENCY =   17.087817    



                              INCREMENT NUMBER   296
                              FREQUENCY =   17.145939    



                              INCREMENT NUMBER   297
                              FREQUENCY =   17.204060    



                              INCREMENT NUMBER   298
                              FREQUENCY =   17.262182    



                              INCREMENT NUMBER   299
                              FREQUENCY =   17.320304    



                              INCREMENT NUMBER   300
                              FREQUENCY =   17.378426    



                              INCREMENT NUMBER   301
                              FREQUENCY =   17.436548    



                              INCREMENT NUMBER   302
                              FREQUENCY =   17.494669    



                              INCREMENT NUMBER   303
                              FREQUENCY =   17.552791    



                              INCREMENT NUMBER   304
                              FREQUENCY =   17.610913    



                              INCREMENT NUMBER   305
                              FREQUENCY =   17.669035    



                              INCREMENT NUMBER   306
                              FREQUENCY =   17.727157    



                              INCREMENT NUMBER   307
                              FREQUENCY =   17.785279    



                              INCREMENT NUMBER   308
                              FREQUENCY =   17.843400    



                              INCREMENT NUMBER   309
                              FREQUENCY =   17.901522    



                              INCREMENT NUMBER   310
                              FREQUENCY =   17.959644    



                              INCREMENT NUMBER   311
                              FREQUENCY =   18.017766    



                              INCREMENT NUMBER   312
                              FREQUENCY =   18.075888    



                              INCREMENT NUMBER   313
                              FREQUENCY =   18.134010    



                              INCREMENT NUMBER   314
                              FREQUENCY =   18.192131    



                              INCREMENT NUMBER   315
                              FREQUENCY =   18.250253    



                              INCREMENT NUMBER   316
                              FREQUENCY =   18.308375    



                              INCREMENT NUMBER   317
                              FREQUENCY =   18.366497    



                              INCREMENT NUMBER   318
                              FREQUENCY =   18.424619    



                              INCREMENT NUMBER   319
                              FREQUENCY =   18.482741    



                              INCREMENT NUMBER   320
                              FREQUENCY =   18.540862    



                              INCREMENT NUMBER   321
                              FREQUENCY =   18.598984    



                              INCREMENT NUMBER   322
                              FREQUENCY =   18.657106    



                              INCREMENT NUMBER   323
                              FREQUENCY =   18.715228    



                              INCREMENT NUMBER   324
                              FREQUENCY =   18.773350    



                              INCREMENT NUMBER   325
                              FREQUENCY =   18.831471    



                              INCREMENT NUMBER   326
                              FREQUENCY =   18.889593    



                              INCREMENT NUMBER   327
                              FREQUENCY =   18.947715    



                              INCREMENT NUMBER   328
                              FREQUENCY =   19.005837    



                              INCREMENT NUMBER   329
                              FREQUENCY =   19.063959    



                              INCREMENT NUMBER   330
                              FREQUENCY =   19.122081    



                              INCREMENT NUMBER   331
                              FREQUENCY =   19.180202    



                              INCREMENT NUMBER   332
                              FREQUENCY =   19.238324    



                              INCREMENT NUMBER   333
                              FREQUENCY =   19.296446    



                              INCREMENT NUMBER   334
                              FREQUENCY =   19.354568    



                              INCREMENT NUMBER   335
                              FREQUENCY =   19.412690    



                              INCREMENT NUMBER   336
                              FREQUENCY =   19.470812    



                              INCREMENT NUMBER   337
                              FREQUENCY =   19.528933    



                              INCREMENT NUMBER   338
                              FREQUENCY =   19.587055    



                              INCREMENT NUMBER   339
                              FREQUENCY =   19.645177    



                              INCREMENT NUMBER   340
                              FREQUENCY =   19.703299    



                              INCREMENT NUMBER   341
                              FREQUENCY =   19.761421    



                              INCREMENT NUMBER   342
                              FREQUENCY =   19.819543    



                              INCREMENT NUMBER   343
                              FREQUENCY =   19.877664    



                              INCREMENT NUMBER   344
                              FREQUENCY =   19.935786    



                              INCREMENT NUMBER   345
                              FREQUENCY =   19.993908    



                              INCREMENT NUMBER   346
                              FREQUENCY =   20.052030    



                              INCREMENT NUMBER   347
                              FREQUENCY =   20.110152    



                              INCREMENT NUMBER   348
                              FREQUENCY =   20.168273    



                              INCREMENT NUMBER   349
                              FREQUENCY =   20.226395    



                              INCREMENT NUMBER   350
                              FREQUENCY =   20.284517    



                              INCREMENT NUMBER   351
                              FREQUENCY =   20.342639    



                              INCREMENT NUMBER   352
                              FREQUENCY =   20.400761    



                              INCREMENT NUMBER   353
                              FREQUENCY =   20.458883    



                              INCREMENT NUMBER   354
                              FREQUENCY =   20.517004    



                              INCREMENT NUMBER   355
                              FREQUENCY =   20.575126    



                              INCREMENT NUMBER   356
                              FREQUENCY =   20.633248    



                              INCREMENT NUMBER   357
                              FREQUENCY =   20.691370    



                              INCREMENT NUMBER   358
                              FREQUENCY =   20.749492    



                              INCREMENT NUMBER   359
                              FREQUENCY =   20.807614    



                              INCREMENT NUMBER   360
                              FREQUENCY =   20.865735    



                              INCREMENT NUMBER   361
                              FREQUENCY =   20.923857    



                              INCREMENT NUMBER   362
                              FREQUENCY =   20.981979    



                              INCREMENT NUMBER   363
                              FREQUENCY =   21.040101    



                              INCREMENT NUMBER   364
                              FREQUENCY =   21.098223    



                              INCREMENT NUMBER   365
                              FREQUENCY =   21.156344    



                              INCREMENT NUMBER   366
                              FREQUENCY =   21.214466    



                              INCREMENT NUMBER   367
                              FREQUENCY =   21.272588    



                              INCREMENT NUMBER   368
                              FREQUENCY =   21.330710    



                              INCREMENT NUMBER   369
                              FREQUENCY =   21.388832    



                              INCREMENT NUMBER   370
                              FREQUENCY =   21.446954    



                              INCREMENT NUMBER   371
                              FREQUENCY =   21.505075    



                              INCREMENT NUMBER   372
                              FREQUENCY =   21.563197    



                              INCREMENT NUMBER   373
                              FREQUENCY =   21.621319    



                              INCREMENT NUMBER   374
                              FREQUENCY =   21.679441    



                              INCREMENT NUMBER   375
                              FREQUENCY =   21.737563    



                              INCREMENT NUMBER   376
                              FREQUENCY =   21.795685    



                              INCREMENT NUMBER   377
                              FREQUENCY =   21.853806    



                              INCREMENT NUMBER   378
                              FREQUENCY =   21.911928    



                              INCREMENT NUMBER   379
                              FREQUENCY =   21.970050    



                              INCREMENT NUMBER   380
                              FREQUENCY =   22.028172    



                              INCREMENT NUMBER   381
                              FREQUENCY =   22.086294    



                              INCREMENT NUMBER   382
                              FREQUENCY =   22.144416    



                              INCREMENT NUMBER   383
                              FREQUENCY =   22.202537    



                              INCREMENT NUMBER   384
                              FREQUENCY =   22.260659    



                              INCREMENT NUMBER   385
                              FREQUENCY =   22.318781    



                              INCREMENT NUMBER   386
                              FREQUENCY =   22.376903    



                              INCREMENT NUMBER   387
                              FREQUENCY =   22.435025    



                              INCREMENT NUMBER   388
                              FREQUENCY =   22.493146    



                              INCREMENT NUMBER   389
                              FREQUENCY =   22.551268    



                              INCREMENT NUMBER   390
                              FREQUENCY =   22.609390    



                              INCREMENT NUMBER   391
                              FREQUENCY =   22.667512    



                              INCREMENT NUMBER   392
                              FREQUENCY =   22.725634    



                              INCREMENT NUMBER   393
                              FREQUENCY =   22.783756    



                              INCREMENT NUMBER   394
                              FREQUENCY =   22.841877    



                              INCREMENT NUMBER   395
                              FREQUENCY =   22.899999    



                              INCREMENT NUMBER   396
                              FREQUENCY =   22.958121    



                              INCREMENT NUMBER   397
                              FREQUENCY =   23.016243    



                              INCREMENT NUMBER   398
                              FREQUENCY =   23.074365    



                              INCREMENT NUMBER   399
                              FREQUENCY =   23.132487    



                              INCREMENT NUMBER   400
                              FREQUENCY =   23.190608    



                              INCREMENT NUMBER   401
                              FREQUENCY =   23.248730    



                              INCREMENT NUMBER   402
                              FREQUENCY =   23.306852    



                              INCREMENT NUMBER   403
                              FREQUENCY =   23.364974    



                              INCREMENT NUMBER   404
                              FREQUENCY =   23.423096    



                              INCREMENT NUMBER   405
                              FREQUENCY =   23.481218    



                              INCREMENT NUMBER   406
                              FREQUENCY =   23.539339    



                              INCREMENT NUMBER   407
                              FREQUENCY =   23.597461    



                              INCREMENT NUMBER   408
                              FREQUENCY =   23.655583    



                              INCREMENT NUMBER   409
                              FREQUENCY =   23.713705    



                              INCREMENT NUMBER   410
                              FREQUENCY =   23.771827    



                              INCREMENT NUMBER   411
                              FREQUENCY =   23.829948    



                              INCREMENT NUMBER   412
                              FREQUENCY =   23.888070    



                              INCREMENT NUMBER   413
                              FREQUENCY =   23.946192    



                              INCREMENT NUMBER   414
                              FREQUENCY =   24.004314    



                              INCREMENT NUMBER   415
                              FREQUENCY =   24.062436    



                              INCREMENT NUMBER   416
                              FREQUENCY =   24.120558    



                              INCREMENT NUMBER   417
                              FREQUENCY =   24.178679    



                              INCREMENT NUMBER   418
                              FREQUENCY =   24.236801    



                              INCREMENT NUMBER   419
                              FREQUENCY =   24.294923    



                              INCREMENT NUMBER   420
                              FREQUENCY =   24.353045    



                              INCREMENT NUMBER   421
                              FREQUENCY =   24.411167    



                              INCREMENT NUMBER   422
                              FREQUENCY =   24.469289    



                              INCREMENT NUMBER   423
                              FREQUENCY =   24.527410    



                              INCREMENT NUMBER   424
                              FREQUENCY =   24.585532    



                              INCREMENT NUMBER   425
                              FREQUENCY =   24.643654    



                              INCREMENT NUMBER   426
                              FREQUENCY =   24.701776    



                              INCREMENT NUMBER   427
                              FREQUENCY =   24.759898    



                              INCREMENT NUMBER   428
                              FREQUENCY =   24.818020    



                              INCREMENT NUMBER   429
                              FREQUENCY =   24.876141    



                              INCREMENT NUMBER   430
                              FREQUENCY =   24.934263    



                              INCREMENT NUMBER   431
                              FREQUENCY =   24.992385    



                              INCREMENT NUMBER   432
                              FREQUENCY =   25.050507    



                              INCREMENT NUMBER   433
                              FREQUENCY =   25.108629    



                              INCREMENT NUMBER   434
                              FREQUENCY =   25.166750    



                              INCREMENT NUMBER   435
                              FREQUENCY =   25.224872    



                              INCREMENT NUMBER   436
                              FREQUENCY =   25.282994    



                              INCREMENT NUMBER   437
                              FREQUENCY =   25.341116    



                              INCREMENT NUMBER   438
                              FREQUENCY =   25.399238    



                              INCREMENT NUMBER   439
                              FREQUENCY =   25.457360    



                              INCREMENT NUMBER   440
                              FREQUENCY =   25.515481    



                              INCREMENT NUMBER   441
                              FREQUENCY =   25.573603    



                              INCREMENT NUMBER   442
                              FREQUENCY =   25.631725    



                              INCREMENT NUMBER   443
                              FREQUENCY =   25.689847    



                              INCREMENT NUMBER   444
                              FREQUENCY =   25.747969    



                              INCREMENT NUMBER   445
                              FREQUENCY =   25.806091    



                              INCREMENT NUMBER   446
                              FREQUENCY =   25.864212    



                              INCREMENT NUMBER   447
                              FREQUENCY =   25.922334    



                              INCREMENT NUMBER   448
                              FREQUENCY =   25.980456    



                              INCREMENT NUMBER   449
                              FREQUENCY =   26.038578    



                              INCREMENT NUMBER   450
                              FREQUENCY =   26.096700    



                              INCREMENT NUMBER   451
                              FREQUENCY =   26.154821    



                              INCREMENT NUMBER   452
                              FREQUENCY =   26.212943    



                              INCREMENT NUMBER   453
                              FREQUENCY =   26.271065    



                              INCREMENT NUMBER   454
                              FREQUENCY =   26.329187    



                              INCREMENT NUMBER   455
                              FREQUENCY =   26.387309    



                              INCREMENT NUMBER   456
                              FREQUENCY =   26.445431    



                              INCREMENT NUMBER   457
                              FREQUENCY =   26.503552    



                              INCREMENT NUMBER   458
                              FREQUENCY =   26.561674    



                              INCREMENT NUMBER   459
                              FREQUENCY =   26.619796    



                              INCREMENT NUMBER   460
                              FREQUENCY =   26.677918    



                              INCREMENT NUMBER   461
                              FREQUENCY =   26.736040    



                              INCREMENT NUMBER   462
                              FREQUENCY =   26.794162    



                              INCREMENT NUMBER   463
                              FREQUENCY =   26.852283    



                              INCREMENT NUMBER   464
                              FREQUENCY =   26.910405    



                              INCREMENT NUMBER   465
                              FREQUENCY =   26.968527    



                              INCREMENT NUMBER   466
                              FREQUENCY =   27.026649    



                              INCREMENT NUMBER   467
                              FREQUENCY =   27.084771    



                              INCREMENT NUMBER   468
                              FREQUENCY =   27.142893    



                              INCREMENT NUMBER   469
                              FREQUENCY =   27.201014    



                              INCREMENT NUMBER   470
                              FREQUENCY =   27.259136    



                              INCREMENT NUMBER   471
                              FREQUENCY =   27.317258    



                              INCREMENT NUMBER   472
                              FREQUENCY =   27.375380    



                              INCREMENT NUMBER   473
                              FREQUENCY =   27.433502    



                              INCREMENT NUMBER   474
                              FREQUENCY =   27.491623    



                              INCREMENT NUMBER   475
                              FREQUENCY =   27.549745    



                              INCREMENT NUMBER   476
                              FREQUENCY =   27.607867    



                              INCREMENT NUMBER   477
                              FREQUENCY =   27.665989    



                              INCREMENT NUMBER   478
                              FREQUENCY =   27.724111    



                              INCREMENT NUMBER   479
                              FREQUENCY =   27.782233    



                              INCREMENT NUMBER   480
                              FREQUENCY =   27.840354    



                              INCREMENT NUMBER   481
                              FREQUENCY =   27.898476    



                              INCREMENT NUMBER   482
                              FREQUENCY =   27.956598    



                              INCREMENT NUMBER   483
                              FREQUENCY =   28.014720    



                              INCREMENT NUMBER   484
                              FREQUENCY =   28.072842    



                              INCREMENT NUMBER   485
                              FREQUENCY =   28.130964    



                              INCREMENT NUMBER   486
                              FREQUENCY =   28.189085    



                              INCREMENT NUMBER   487
                              FREQUENCY =   28.247207    



                              INCREMENT NUMBER   488
                              FREQUENCY =   28.305329    



                              INCREMENT NUMBER   489
                              FREQUENCY =   28.363451    



                              INCREMENT NUMBER   490
                              FREQUENCY =   28.421573    



                              INCREMENT NUMBER   491
                              FREQUENCY =   28.479695    



                              INCREMENT NUMBER   492
                              FREQUENCY =   28.537816    



                              INCREMENT NUMBER   493
                              FREQUENCY =   28.595938    



                              INCREMENT NUMBER   494
                              FREQUENCY =   28.654060    



                              INCREMENT NUMBER   495
                              FREQUENCY =   28.712182    



                              INCREMENT NUMBER   496
                              FREQUENCY =   28.770304    



                              INCREMENT NUMBER   497
                              FREQUENCY =   28.828425    



                              INCREMENT NUMBER   498
                              FREQUENCY =   28.886547    



                              INCREMENT NUMBER   499
                              FREQUENCY =   28.944669    



                              INCREMENT NUMBER   500
                              FREQUENCY =   29.002791    



                              INCREMENT NUMBER   501
                              FREQUENCY =   29.060913    



                              INCREMENT NUMBER   502
                              FREQUENCY =   29.119035    



                              INCREMENT NUMBER   503
                              FREQUENCY =   29.177156    



                              INCREMENT NUMBER   504
                              FREQUENCY =   29.235278    



                              INCREMENT NUMBER   505
                              FREQUENCY =   29.293400    



                              INCREMENT NUMBER   506
                              FREQUENCY =   29.351522    



                              INCREMENT NUMBER   507
                              FREQUENCY =   29.409644    



                              INCREMENT NUMBER   508
[...]



                              INCREMENT NUMBER  1927
                              FREQUENCY =   288.13467    



                              INCREMENT NUMBER  1928
                              FREQUENCY =   288.20406    



                              INCREMENT NUMBER  1929
                              FREQUENCY =   288.27345    



                              INCREMENT NUMBER  1930
                              FREQUENCY =   288.34284    



                              INCREMENT NUMBER  1931
                              FREQUENCY =   288.41222    



                              INCREMENT NUMBER  1932
                              FREQUENCY =   288.48161    



                              INCREMENT NUMBER  1933
                              FREQUENCY =   288.55100    



                              INCREMENT NUMBER  1934
                              FREQUENCY =   288.62039    



                              INCREMENT NUMBER  1935
                              FREQUENCY =   288.68978    



                              INCREMENT NUMBER  1936
                              FREQUENCY =   288.75916    



                              INCREMENT NUMBER  1937
                              FREQUENCY =   288.82855    



                              INCREMENT NUMBER  1938
                              FREQUENCY =   288.89794    



                              INCREMENT NUMBER  1939
                              FREQUENCY =   288.96733    



                              INCREMENT NUMBER  1940
                              FREQUENCY =   289.03672    



                              INCREMENT NUMBER  1941
                              FREQUENCY =   289.10610    



                              INCREMENT NUMBER  1942
                              FREQUENCY =   289.17549    



                              INCREMENT NUMBER  1943
                              FREQUENCY =   289.24488    



                              INCREMENT NUMBER  1944
                              FREQUENCY =   289.31427    



                              INCREMENT NUMBER  1945
                              FREQUENCY =   289.38366    



                              INCREMENT NUMBER  1946
                              FREQUENCY =   289.45304    



                              INCREMENT NUMBER  1947
                              FREQUENCY =   289.52243    



                              INCREMENT NUMBER  1948
                              FREQUENCY =   289.59182    



                              INCREMENT NUMBER  1949
                              FREQUENCY =   289.66121    



                              INCREMENT NUMBER  1950
                              FREQUENCY =   289.73059    



                              INCREMENT NUMBER  1951
                              FREQUENCY =   289.79998    



                              INCREMENT NUMBER  1952
                              FREQUENCY =   289.86937    



                              INCREMENT NUMBER  1953
                              FREQUENCY =   289.93876    



                              INCREMENT NUMBER  1954
                              FREQUENCY =   290.00815    



                              INCREMENT NUMBER  1955
                              FREQUENCY =   290.07753    



                              INCREMENT NUMBER  1956
                              FREQUENCY =   290.14692    



                              INCREMENT NUMBER  1957
                              FREQUENCY =   290.21631    



                              INCREMENT NUMBER  1958
                              FREQUENCY =   290.28570    



                              INCREMENT NUMBER  1959
                              FREQUENCY =   290.35509    



                              INCREMENT NUMBER  1960
                              FREQUENCY =   290.42447    



                              INCREMENT NUMBER  1961
                              FREQUENCY =   290.49386    



                              INCREMENT NUMBER  1962
                              FREQUENCY =   290.56325    



                              INCREMENT NUMBER  1963
                              FREQUENCY =   290.63264    



                              INCREMENT NUMBER  1964
                              FREQUENCY =   290.70202    



                              INCREMENT NUMBER  1965
                              FREQUENCY =   290.77141    



                              INCREMENT NUMBER  1966
                              FREQUENCY =   290.84080    



                              INCREMENT NUMBER  1967
                              FREQUENCY =   290.91019    



                              INCREMENT NUMBER  1968
                              FREQUENCY =   290.97958    



                              INCREMENT NUMBER  1969
                              FREQUENCY =   291.04896    



                              INCREMENT NUMBER  1970
                              FREQUENCY =   291.11835    



                              INCREMENT NUMBER  1971
                              FREQUENCY =   291.18774    



                              INCREMENT NUMBER  1972
                              FREQUENCY =   291.25713    



                              INCREMENT NUMBER  1973
                              FREQUENCY =   291.32652    



                              INCREMENT NUMBER  1974
                              FREQUENCY =   291.39590    



                              INCREMENT NUMBER  1975
                              FREQUENCY =   291.46529    



                              INCREMENT NUMBER  1976
                              FREQUENCY =   291.53468    



                              INCREMENT NUMBER  1977
                              FREQUENCY =   291.60407    



                              INCREMENT NUMBER  1978
                              FREQUENCY =   291.67345    



                              INCREMENT NUMBER  1979
                              FREQUENCY =   291.74284    



                              INCREMENT NUMBER  1980
                              FREQUENCY =   291.81223    



                              INCREMENT NUMBER  1981
                              FREQUENCY =   291.88162    



                              INCREMENT NUMBER  1982
                              FREQUENCY =   291.95101    



                              INCREMENT NUMBER  1983
                              FREQUENCY =   292.02039    



                              INCREMENT NUMBER  1984
                              FREQUENCY =   292.08978    



                              INCREMENT NUMBER  1985
                              FREQUENCY =   292.15917    



                              INCREMENT NUMBER  1986
                              FREQUENCY =   292.22856    



                              INCREMENT NUMBER  1987
                              FREQUENCY =   292.29795    



                              INCREMENT NUMBER  1988
                              FREQUENCY =   292.36733    



                              INCREMENT NUMBER  1989
                              FREQUENCY =   292.43672    



                              INCREMENT NUMBER  1990
                              FREQUENCY =   292.50611    



                              INCREMENT NUMBER  1991
                              FREQUENCY =   292.57550    



                              INCREMENT NUMBER  1992
                              FREQUENCY =   292.64489    



                              INCREMENT NUMBER  1993
                              FREQUENCY =   292.71427    



                              INCREMENT NUMBER  1994
                              FREQUENCY =   292.78366    



                              INCREMENT NUMBER  1995
                              FREQUENCY =   292.85305    



                              INCREMENT NUMBER  1996
                              FREQUENCY =   292.92244    



                              INCREMENT NUMBER  1997
                              FREQUENCY =   292.99182    



                              INCREMENT NUMBER  1998
                              FREQUENCY =   293.06121    



                              INCREMENT NUMBER  1999
                              FREQUENCY =   293.13060    



                              INCREMENT NUMBER  2000
                              FREQUENCY =   293.19999    



                              INCREMENT NUMBER  2001
                              FREQUENCY =   293.26938    



                              INCREMENT NUMBER  2002
                              FREQUENCY =   293.33876    



                              INCREMENT NUMBER  2003
                              FREQUENCY =   293.40815    



                              INCREMENT NUMBER  2004
                              FREQUENCY =   293.47754    



                              INCREMENT NUMBER  2005
                              FREQUENCY =   293.54693    



                              INCREMENT NUMBER  2006
                              FREQUENCY =   293.61632    



                              INCREMENT NUMBER  2007
                              FREQUENCY =   293.68570    



                              INCREMENT NUMBER  2008
                              FREQUENCY =   293.75509    



                              INCREMENT NUMBER  2009
                              FREQUENCY =   293.82448    



                              INCREMENT NUMBER  2010
                              FREQUENCY =   293.89387    



                              INCREMENT NUMBER  2011
                              FREQUENCY =   293.96325    



                              INCREMENT NUMBER  2012
                              FREQUENCY =   294.03264    



                              INCREMENT NUMBER  2013
                              FREQUENCY =   294.10203    



                              INCREMENT NUMBER  2014
                              FREQUENCY =   294.17142    



                              INCREMENT NUMBER  2015
                              FREQUENCY =   294.24081    



                              INCREMENT NUMBER  2016
                              FREQUENCY =   294.31019    



                              INCREMENT NUMBER  2017
                              FREQUENCY =   294.37958    



                              INCREMENT NUMBER  2018
                              FREQUENCY =   294.44897    



                              INCREMENT NUMBER  2019
                              FREQUENCY =   294.51836    



                              INCREMENT NUMBER  2020
                              FREQUENCY =   294.58775    



                              INCREMENT NUMBER  2021
                              FREQUENCY =   294.65713    



                              INCREMENT NUMBER  2022
                              FREQUENCY =   294.72652    



                              INCREMENT NUMBER  2023
                              FREQUENCY =   294.79591    



                              INCREMENT NUMBER  2024
                              FREQUENCY =   294.86530    



                              INCREMENT NUMBER  2025
                              FREQUENCY =   294.93469    



                              INCREMENT NUMBER  2026
                              FREQUENCY =   295.00407    



                              INCREMENT NUMBER  2027
                              FREQUENCY =   295.07346    



                              INCREMENT NUMBER  2028
                              FREQUENCY =   295.14285    



                              INCREMENT NUMBER  2029
                              FREQUENCY =   295.21224    



                              INCREMENT NUMBER  2030
                              FREQUENCY =   295.28162    



                              INCREMENT NUMBER  2031
                              FREQUENCY =   295.35101    



                              INCREMENT NUMBER  2032
                              FREQUENCY =   295.42040    



                              INCREMENT NUMBER  2033
                              FREQUENCY =   295.48979    



                              INCREMENT NUMBER  2034
                              FREQUENCY =   295.55918    



                              INCREMENT NUMBER  2035
                              FREQUENCY =   295.62856    



                              INCREMENT NUMBER  2036
                              FREQUENCY =   295.69795    



                              INCREMENT NUMBER  2037
                              FREQUENCY =   295.76734    



                              INCREMENT NUMBER  2038
                              FREQUENCY =   295.83673    



                              INCREMENT NUMBER  2039
                              FREQUENCY =   295.90612    



                              INCREMENT NUMBER  2040
                              FREQUENCY =   295.97550    



                              INCREMENT NUMBER  2041
                              FREQUENCY =   296.04489    



                              INCREMENT NUMBER  2042
                              FREQUENCY =   296.11428    



                              INCREMENT NUMBER  2043
                              FREQUENCY =   296.18367    



                              INCREMENT NUMBER  2044
                              FREQUENCY =   296.25305    



                              INCREMENT NUMBER  2045
                              FREQUENCY =   296.32244    



                              INCREMENT NUMBER  2046
                              FREQUENCY =   296.39183    



                              INCREMENT NUMBER  2047
                              FREQUENCY =   296.46122    



                              INCREMENT NUMBER  2048
                              FREQUENCY =   296.53061    



                              INCREMENT NUMBER  2049
                              FREQUENCY =   296.59999    



                              INCREMENT NUMBER  2050
                              FREQUENCY =   296.66938    



                              INCREMENT NUMBER  2051
                              FREQUENCY =   296.73877    



                              INCREMENT NUMBER  2052
                              FREQUENCY =   296.80816    



                              INCREMENT NUMBER  2053
                              FREQUENCY =   296.87755    



                              INCREMENT NUMBER  2054
                              FREQUENCY =   296.94693    



                              INCREMENT NUMBER  2055
                              FREQUENCY =   297.01632    



                              INCREMENT NUMBER  2056
                              FREQUENCY =   297.08571    



                              INCREMENT NUMBER  2057
                              FREQUENCY =   297.15510    



                              INCREMENT NUMBER  2058
                              FREQUENCY =   297.22448    



                              INCREMENT NUMBER  2059
                              FREQUENCY =   297.29387    



                              INCREMENT NUMBER  2060
                              FREQUENCY =   297.36326    



                              INCREMENT NUMBER  2061
                              FREQUENCY =   297.43265    



                              INCREMENT NUMBER  2062
                              FREQUENCY =   297.50204    



                              INCREMENT NUMBER  2063
                              FREQUENCY =   297.57142    



                              INCREMENT NUMBER  2064
                              FREQUENCY =   297.64081    



                              INCREMENT NUMBER  2065
                              FREQUENCY =   297.71020    



                              INCREMENT NUMBER  2066
                              FREQUENCY =   297.77959    



                              INCREMENT NUMBER  2067
                              FREQUENCY =   297.84898    



                              INCREMENT NUMBER  2068
                              FREQUENCY =   297.91836    



                              INCREMENT NUMBER  2069
                              FREQUENCY =   297.98775    



                              INCREMENT NUMBER  2070
                              FREQUENCY =   298.05714    



                              INCREMENT NUMBER  2071
                              FREQUENCY =   298.12653    



                              INCREMENT NUMBER  2072
                              FREQUENCY =   298.19592    



                              INCREMENT NUMBER  2073
                              FREQUENCY =   298.26530    



                              INCREMENT NUMBER  2074
                              FREQUENCY =   298.33469    



                              INCREMENT NUMBER  2075
                              FREQUENCY =   298.40408    



                              INCREMENT NUMBER  2076
                              FREQUENCY =   298.47347    



                              INCREMENT NUMBER  2077
                              FREQUENCY =   298.54285    



                              INCREMENT NUMBER  2078
                              FREQUENCY =   298.61224    



                              INCREMENT NUMBER  2079
                              FREQUENCY =   298.68163    



                              INCREMENT NUMBER  2080
                              FREQUENCY =   298.75102    



                              INCREMENT NUMBER  2081
                              FREQUENCY =   298.82041    



                              INCREMENT NUMBER  2082
                              FREQUENCY =   298.88979    



                              INCREMENT NUMBER  2083
                              FREQUENCY =   298.95918    



                              INCREMENT NUMBER  2084
                              FREQUENCY =   299.02857    



                              INCREMENT NUMBER  2085
                              FREQUENCY =   299.09796    



                              INCREMENT NUMBER  2086
                              FREQUENCY =   299.16735    



                              INCREMENT NUMBER  2087
                              FREQUENCY =   299.23673    



                              INCREMENT NUMBER  2088
                              FREQUENCY =   299.30612    



                              INCREMENT NUMBER  2089
                              FREQUENCY =   299.37551    



                              INCREMENT NUMBER  2090
                              FREQUENCY =   299.44490    



                              INCREMENT NUMBER  2091
                              FREQUENCY =   299.51428    



                              INCREMENT NUMBER  2092
                              FREQUENCY =   299.58367    



                              INCREMENT NUMBER  2093
                              FREQUENCY =   299.65306    



                              INCREMENT NUMBER  2094
                              FREQUENCY =   299.72245    



                              INCREMENT NUMBER  2095
                              FREQUENCY =   299.79184    



                              INCREMENT NUMBER  2096
                              FREQUENCY =   299.86122    



                              INCREMENT NUMBER  2097
                              FREQUENCY =   299.93061    



                              INCREMENT NUMBER  2098
                              FREQUENCY =   300.00000    



          THE ANALYSIS HAS BEEN COMPLETED



                              ANALYSIS COMPLETE
                              WITH      1 WARNING MESSAGES ON THE DAT FILE



     JOB TIME SUMMARY
       USER TIME (SEC)      =   16.000    
       SYSTEM TIME (SEC)    =   11.200    
       TOTAL CPU TIME (SEC) =   27.200    
       WALLCLOCK TIME (SEC) =         27
