1

   Abaqus 6.14-1                                  Date 27-Jan-2016   Time 16:23:25
   For use by Supplied By SSQ under license from Dassault Systemes or its subsidiary.

                                                                                 
                                                                                 
 STEP    1     INCREMENT     1     STEP TIME    0.00    


                        S T E P       1     S T A T I C   A N A L Y S I S


                                                                                          

     AUTOMATIC TIME CONTROL WITH -
          A SUGGESTED INITIAL TIME INCREMENT OF                 1.00    
          AND A TOTAL TIME PERIOD OF                            1.00    
          THE MINIMUM TIME INCREMENT ALLOWED IS                1.000E-05
          THE MAXIMUM TIME INCREMENT ALLOWED IS                 1.00    

     LINEAR EQUATION SOLVER TYPE         DIRECT SPARSE

 CONVERGENCE TOLERANCE PARAMETERS FOR FORCE    
     CRITERION FOR RESIDUAL FORCE     FOR A NONLINEAR PROBLEM          5.000E-03
     CRITERION FOR DISP.    CORRECTION IN A NONLINEAR PROBLEM          1.000E-02
     INITIAL VALUE OF TIME AVERAGE FORCE                               1.000E-02
     AVERAGE FORCE     IS TIME AVERAGE FORCE    
     ALTERNATE CRIT. FOR RESIDUAL FORCE     FOR A NONLINEAR PROBLEM    2.000E-02
     CRITERION FOR ZERO FORCE     RELATIVE TO TIME AVRG. FORCE         1.000E-05
     CRITERION FOR RESIDUAL FORCE     WHEN THERE IS ZERO FLUX          1.000E-05
     CRITERION FOR DISP.    CORRECTION WHEN THERE IS ZERO FLUX         1.000E-03
     CRITERION FOR RESIDUAL FORCE     FOR A LINEAR INCREMENT           1.000E-08
     FIELD CONVERSION RATIO                                             1.00    
     CRITERION FOR ZERO FORCE     REL. TO TIME AVRG. MAX. FORCE        1.000E-05
     CRITERION FOR ZERO DISP.    RELATIVE TO CHARACTERISTIC LENGTH     1.000E-08

 CONVERGENCE TOLERANCE PARAMETERS FOR MOMENT   
     CRITERION FOR RESIDUAL MOMENT    FOR A NONLINEAR PROBLEM          5.000E-03
     CRITERION FOR ROTATION CORRECTION IN A NONLINEAR PROBLEM          1.000E-02
     INITIAL VALUE OF TIME AVERAGE MOMENT                              1.000E-02
     AVERAGE MOMENT    IS TIME AVERAGE MOMENT   
     ALTERNATE CRIT. FOR RESIDUAL MOMENT    FOR A NONLINEAR PROBLEM    2.000E-02
     CRITERION FOR ZERO MOMENT    RELATIVE TO TIME AVRG. MOMENT        1.000E-05
     CRITERION FOR RESIDUAL MOMENT    WHEN THERE IS ZERO FLUX          1.000E-05
     CRITERION FOR ROTATION CORRECTION WHEN THERE IS ZERO FLUX         1.000E-03
     CRITERION FOR RESIDUAL MOMENT    FOR A LINEAR INCREMENT           1.000E-08
     FIELD CONVERSION RATIO                                             1.00    
     CRITERION FOR ZERO MOMENT    REL. TO TIME AVRG. MAX. MOMENT       1.000E-05

     VOLUMETRIC STRAIN COMPATIBILITY TOLERANCE FOR HYBRID SOLIDS       1.000E-05
     AXIAL STRAIN COMPATIBILITY TOLERANCE FOR HYBRID BEAMS             1.000E-05
     TRANS. SHEAR STRAIN COMPATIBILITY TOLERANCE FOR HYBRID BEAMS      1.000E-05
     SOFT CONTACT CONSTRAINT COMPATIBILITY TOLERANCE FOR P>P0          5.000E-03
     SOFT CONTACT CONSTRAINT COMPATIBILITY TOLERANCE FOR P=0.0         0.100    
     CONTACT FORCE ERROR TOLERANCE FOR CONVERT SDI=YES                 1.00    
     DISPLACEMENT COMPATIBILITY TOLERANCE FOR DCOUP ELEMENTS           1.000E-05
     ROTATION COMPATIBILITY TOLERANCE FOR DCOUP ELEMENTS               1.000E-05

 EQUILIBRIUM WILL BE CHECKED FOR SEVERE DISCONTINUITY ITERATIONS

 TIME INCREMENTATION CONTROL PARAMETERS:
     FIRST EQUILIBRIUM ITERATION FOR CONSECUTIVE DIVERGENCE CHECK              4
     EQUILIBRIUM ITERATION AT WHICH LOG. CONVERGENCE RATE CHECK BEGINS         8
     EQUILIBRIUM ITERATION AFTER WHICH ALTERNATE RESIDUAL IS USED              9
     MAXIMUM EQUILIBRIUM ITERATIONS ALLOWED                                   16
     EQUILIBRIUM ITERATION COUNT FOR CUT-BACK IN NEXT INCREMENT               10
     MAXIMUM EQUILIB. ITERS IN TWO INCREMENTS FOR TIME INCREMENT INCREASE      4
     MAXIMUM ITERATIONS FOR SEVERE DISCONTINUITIES                            50
     MAXIMUM CUT-BACKS ALLOWED IN AN INCREMENT                                 5
     MAXIMUM DISCON. ITERS IN TWO INCREMENTS FOR TIME INCREMENT INCREASE      50
     MAXIMUM CONTACT AUGMENTATIONS FOR *SURFACE BEHAVIOR,AUGMENTED LAGRANGE   50
     CUT-BACK FACTOR AFTER DIVERGENCE                                 0.2500    
     CUT-BACK FACTOR FOR TOO SLOW CONVERGENCE                         0.5000    
     CUT-BACK FACTOR AFTER TOO MANY EQUILIBRIUM ITERATIONS            0.7500    
     CUT-BACK FACTOR AFTER TOO MANY SEVERE DISCONTINUITY ITERATIONS   0.2500    
     CUT-BACK FACTOR AFTER PROBLEMS IN ELEMENT ASSEMBLY               0.2500    
     INCREASE FACTOR AFTER TWO INCREMENTS THAT CONVERGE QUICKLY        1.500    
     MAX. TIME INCREMENT INCREASE FACTOR ALLOWED                       1.500    
     MAX. TIME INCREMENT INCREASE FACTOR ALLOWED (DYNAMICS)            1.250    
     MAX. TIME INCREMENT INCREASE FACTOR ALLOWED (DIFFUSION)           2.000    
     MINIMUM TIME INCREMENT RATIO FOR EXTRAPOLATION TO OCCUR          0.1000    
     MAX. RATIO OF TIME INCREMENT TO STABILITY LIMIT                   1.000    
     FRACTION OF STABILITY LIMIT FOR NEW TIME INCREMENT               0.9500    
     TIME INCREMENT INCREASE FACTOR BEFORE A TIME POINT                1.000    
     GLOBAL STABILIZATION CONTROL IS NOT USED

          PRINT OF INCREMENT NUMBER, TIME, ETC., EVERY    1  INCREMENTS

     THE MAXIMUM NUMBER OF INCREMENTS IN THIS STEP IS                     100

     LINEAR EXTRAPOLATION WILL BE USED

     CHARACTERISTIC ELEMENT LENGTH     2.500E-02

     DETAILS REGARDING ACTUAL SOLUTION WAVEFRONT REQUESTED

     DETAILED OUTPUT OF DIAGNOSTICS TO DATABASE REQUESTED

     PRINT OF INCREMENT NUMBER, TIME, ETC., TO THE MESSAGE FILE EVERY     1  INCREMENTS

     COLLECTING MODEL CONSTRAINT INFORMATION FOR OVERCONSTRAINT CHECKS

     COLLECTING STEP CONSTRAINT INFORMATION FOR OVERCONSTRAINT CHECKS


  INCREMENT     1 STARTS. ATTEMPT NUMBER  1, TIME INCREMENT   1.00    

  NUMBER OF EQUATIONS =      123     NUMBER OF FLOATING PT. OPERATIONS =  6.78E+03

     CHECK POINT   START OF SOLVER    

     CHECK POINT  END OF SOLVER       

       ELAPSED USER TIME (SEC)      =   0.0000    
       ELAPSED SYSTEM TIME (SEC)    =   0.0000    
       ELAPSED TOTAL CPU TIME (SEC) =   0.0000    
       ELAPSED WALLCLOCK TIME (SEC) =          0

               CONVERGENCE CHECKS FOR EQUILIBRIUM ITERATION     1


 AVERAGE FORCE                       503.       TIME AVG. FORCE        503.    
 LARGEST RESIDUAL FORCE            -9.741E-09   AT NODE         36   DOF  2
   INSTANCE: PART-1-1                                                                        
 LARGEST INCREMENT OF DISP.        -9.307E-03   AT NODE         41   DOF  2
   INSTANCE: PART-1-1                                                                        
 LARGEST CORRECTION TO DISP.       -9.307E-03   AT NODE         41   DOF  2
   INSTANCE: PART-1-1                                                                        
          THE FORCE     EQUILIBRIUM RESPONSE WAS LINEAR IN THIS INCREMENT

 AVERAGE MOMENT                      500.       TIME AVG. MOMENT       500.    
 LARGEST RESIDUAL MOMENT            7.391E-11   AT NODE         41   DOF  6
   INSTANCE: PART-1-1                                                                        
 LARGEST INCREMENT OF ROTATION     -1.393E-02   AT NODE         41   DOF  6
   INSTANCE: PART-1-1                                                                        
 LARGEST CORRECTION TO ROTATION    -1.393E-02   AT NODE         41   DOF  6
   INSTANCE: PART-1-1                                                                        
          THE MOMENT    EQUILIBRIUM RESPONSE WAS LINEAR IN THIS INCREMENT

 ITERATION SUMMARY FOR THE INCREMENT:   1 TOTAL ITERATIONS, OF WHICH
   0 ARE SEVERE DISCONTINUITY ITERATIONS AND  1 ARE EQUILIBRIUM ITERATIONS.

 TIME INCREMENT COMPLETED   1.00    ,  FRACTION OF STEP COMPLETED   1.00    
 STEP TIME COMPLETED        1.00    ,  TOTAL TIME COMPLETED         1.00    
1

   Abaqus 6.14-1                                  Date 27-Jan-2016   Time 16:23:25
   For use by Supplied By SSQ under license from Dassault Systemes or its subsidiary.

                                                                                 
                                                                                 
 STEP    2     INCREMENT     1     STEP TIME    0.00    


                        S T E P       2     C A L C U L A T I O N   O F   E I G E N V A L U E S

                                            F O R   N A T U R A L   F R E Q U E N C I E S



                                                                                          

     THE LANCZOS EIGENSOLVER IS USED FOR THIS ANALYSIS
     Abaqus WILL COMPUTE UNCOUPLED
      STRUCTURAL AND ACOUSTIC MODES
     NUMBER OF EIGENVALUES                      6
     HIGHEST FREQUENCY OF INTEREST                   3000.0    
     MAXIMUM NUMBER OF STEPS WITHIN RUN               35
     BLOCK SIZE FOR LANCZOS PROCEDURE                  6
     THE EIGENVECTORS ARE SCALED SO THAT 
      THE LARGEST DISPLACEMENT ENTRY IN EACH VECTOR
      IS UNITY

     THIS IS A LINEAR PERTURBATION STEP.
     ALL LOADS ARE DEFINED AS CHANGE IN LOAD TO THE REFERENCE STATE

     EXTRAPOLATION WILL NOT BE USED

     CHARACTERISTIC ELEMENT LENGTH     2.500E-02

     DETAILS REGARDING ACTUAL SOLUTION WAVEFRONT REQUESTED

     DETAILED OUTPUT OF DIAGNOSTICS TO DATABASE REQUESTED

     PRINT OF INCREMENT NUMBER, TIME, ETC., TO THE MESSAGE FILE EVERY     1  INCREMENTS

     COLLECTING STEP CONSTRAINT INFORMATION FOR OVERCONSTRAINT CHECKS

     CHECK POINT   START OF SOLVER    
  
 COMPUTER PRECISION USED BY ABAQUS      2.22045e-016
 CONVERGENCE CRITERION FOR LANCZOS RUN  1.81899e-012
  
 NUMBER OF EQUATIONS                                                         123
 NUMBER OF UNRESTRAINED DEGREES OF FREEDOM                                   120
 HEURISTIC SCALE FOR THE FIRST NONZERO EIGENVALUES (PROBLEM SCALE)  3.21537e+006
 INITIAL SHIFT VALUE                                                0.00000e+000
  
 NUMBER OF CPUS USED BY DIRECT SOLVER     1
  
 NUMBER OF NEGATIVE EIGENVALUES     0
 NUMBER OF POSITIVE EIGENVALUES   123
 NUMBER OF NEGATIVE EIGENVALUES NOT ASSOCIATED WITH LAGRANGE MULTIPLIERS     0
 NUMBER OF LAGRANGE MULTIPLIERS     0
  
 COMPUTATIONAL INTERVAL FOR THE INITIAL LANCZOS RUN
 
 EIGENVALUES NEEDED TO THE RIGHT OF SHIFT VALUE    6
 EIGENVALUES NEEDED TO THE LEFT OF SHIFT VALUE     0
 RIGHT BOUNDARY OF THE COMPUTATIONAL INTERVAL  3.56017e+008
 LEFT BOUNDARY OF THE COMPUTATIONAL INTERVAL  -3.95574e+037
  
 LANCZOS RUN TERMINATED. NUMBER OF STEPS:    5
 ALL THE EIGENVALUES REQUESTED ON THIS LANCZOS RUN ARE FOUND
  
 NUMBER OF ACCEPTED EIGENVALUES    6
  
 ACCEPTED EIGENVALUES
  6.51617e+004 2.49706e+006 1.88615e+007 6.27009e+007 6.88133e+007 1.76759e+008
  
 FACTORIZATION WITH NEW SHIFT VALUE IS REQUIRED
  
 TRUST INTERVALS AFTER LANCZOS RUN AND COMPRESSION
  
 NUMBER OF TRUST INTERVALS    1
  
 -------------------------------------------------------------------------------------
 | KEY | INSIDE |      INERTIAS     |  SENTINELS  |   OUTSIDE   |  NEED TO FIND      |
 |      ENDS OF INTERVAL     |     ENDS OF SENTINEL      |   COMPUTATIONAL INTERVAL  |
 -------------------------------------------------------------------------------------
 |  +  |      0 |        0        0 |     0     0 |     0     0 |      0     6       |
 |-3.95574e+037 0.00000e+000 |-3.95574e+037 0.00000e+000 |-3.95574e+037 3.56017e+008 |
 -------------------------------------------------------------------------------------
  
 DATA FOR CHOOSING SHIFT
  
 NUMBER OF EIGENVALUES NEEDED IN THE PRIMARY TRUST INTERVAL    6
  
 NUMBER OF MODES FORMING SENTINEL TO THE RIGHT    6
 SHIFT RIGHT        3.51750e+008
  
 NUMBER OF MODES FORMING SENTINEL TO THE LEFT     0
 SHIFT LEFT         0.00000e+000
  
 SHIFTING TO THE RIGHT DIRECTION
 NEW SHIFT          3.51750e+008
  
 NUMBER OF NEGATIVE EIGENVALUES     6
 NUMBER OF POSITIVE EIGENVALUES   117
 NUMBER OF NEGATIVE EIGENVALUES NOT ASSOCIATED WITH LAGRANGE MULTIPLIERS     6
 NUMBER OF LAGRANGE MULTIPLIERS     0
  
 THE REQUIRED NUMBER OF EIGENVALUES IS FOUND
  
 FINAL TRUST INTERVAL
  
 -------------------------------------------------------------------------------------
 | KEY | INSIDE |      INERTIAS     |  SENTINELS  |   OUTSIDE   |  NEED TO FIND      |
 |      ENDS OF INTERVAL     |     ENDS OF SENTINEL      |   COMPUTATIONAL INTERVAL  |
 -------------------------------------------------------------------------------------
 |  +  |      6 |        0        6 |     0     0 |     0     0 |      0     0       |
 |-3.95574e+037 3.51750e+008 |-3.95574e+037 3.51750e+008 |-3.95574e+037 3.51750e+008 |
 -------------------------------------------------------------------------------------
  
 FIRST EIGENVALUE REQUESTED BY THE USER     1
 THERE MAY BE MORE EIGENVALUES IN THE SPECIFIED RANGE THAN REQUESTED
  
 EIGENVALUES REQUESTED BY THE USER
  6.51617e+004 2.49706e+006 1.88615e+007 6.27009e+007 6.88133e+007 1.76759e+008
  
 EIGENVALUE EXTRACTION USING THE LANCZOS EIGENSOLVER IS COMPLETE
 NUMBER OF LANCZOS RUNS       :   1
 NUMBER OF LANCZOS STEPS      :   5
 NUMBER OF FACTORIZATIONS     :   2
 NUMBER OF BACK SUBSTITUTIONS :   6

     CHECK POINT  END OF SOLVER       

       ELAPSED USER TIME (SEC)      =   0.0000    
       ELAPSED SYSTEM TIME (SEC)    =   0.0000    
       ELAPSED TOTAL CPU TIME (SEC) =   0.0000    
       ELAPSED WALLCLOCK TIME (SEC) =          0
1

   Abaqus 6.14-1                                  Date 27-Jan-2016   Time 16:23:25
   For use by Supplied By SSQ under license from Dassault Systemes or its subsidiary.

                                                                                 
                                                                                 
 STEP    3     INCREMENT     1     STEP TIME    0.00    


                        S T E P       3     S T E A D Y   S T A T E   A N A L Y S I S                


                                                                                          
          FULL STRUCTURAL-ACOUSTIC COUPLING IS USED IN THIS
          FORCED RESPONSE ANALYSIS
          FREQUENCY RANGE DEFINITIONS (CYCLES/TIME)
                LOW         HIGH        POINTS        BIAS     SCALE FACTOR  TYPE OF SCALING


              1.505E-08     300.          700         1.00         1.00       Linear          
          INTERVAL WILL BE DIVIDED FIRST USING EIGENFREQUENCIES.


     THIS IS A LINEAR PERTURBATION STEP.
     ALL LOADS ARE DEFINED AS CHANGE IN LOAD TO THE REFERENCE STATE

     EXTRAPOLATION WILL NOT BE USED

     CHARACTERISTIC ELEMENT LENGTH     2.500E-02

     DETAILS REGARDING ACTUAL SOLUTION WAVEFRONT REQUESTED

     DETAILED OUTPUT OF DIAGNOSTICS TO DATABASE REQUESTED

     PRINT OF INCREMENT NUMBER, TIME, ETC., TO THE MESSAGE FILE EVERY     1  INCREMENTS


                              INCREMENT NUMBER     1
                              FREQUENCY =  1.50486611E-08


 ITERATION SUMMARY FOR THE INCREMENT:   0 TOTAL ITERATIONS, OF WHICH
   0 ARE SEVERE DISCONTINUITY ITERATIONS AND  0 ARE EQUILIBRIUM ITERATIONS.


                              INCREMENT NUMBER     2
                              FREQUENCY =  5.81218406E-02


 ITERATION SUMMARY FOR THE INCREMENT:   0 TOTAL ITERATIONS, OF WHICH
   0 ARE SEVERE DISCONTINUITY ITERATIONS AND  0 ARE EQUILIBRIUM ITERATIONS.


                              INCREMENT NUMBER     3
                              FREQUENCY =  0.11624367    


 ITERATION SUMMARY FOR THE INCREMENT:   0 TOTAL ITERATIONS, OF WHICH
   0 ARE SEVERE DISCONTINUITY ITERATIONS AND  0 ARE EQUILIBRIUM ITERATIONS.


                              INCREMENT NUMBER     4
                              FREQUENCY =  0.17436549    


 ITERATION SUMMARY FOR THE INCREMENT:   0 TOTAL ITERATIONS, OF WHICH
   0 ARE SEVERE DISCONTINUITY ITERATIONS AND  0 ARE EQUILIBRIUM ITERATIONS.


                              INCREMENT NUMBER     5
                              FREQUENCY =  0.23248732    


 ITERATION SUMMARY FOR THE INCREMENT:   0 TOTAL ITERATIONS, OF WHICH
   0 ARE SEVERE DISCONTINUITY ITERATIONS AND  0 ARE EQUILIBRIUM ITERATIONS.


                              INCREMENT NUMBER     6
                              FREQUENCY =  0.29060914    


 ITERATION SUMMARY FOR THE INCREMENT:   0 TOTAL ITERATIONS, OF WHICH
   0 ARE SEVERE DISCONTINUITY ITERATIONS AND  0 ARE EQUILIBRIUM ITERATIONS.


                              INCREMENT NUMBER     7
                              FREQUENCY =  0.34873097    


 ITERATION SUMMARY FOR THE INCREMENT:   0 TOTAL ITERATIONS, OF WHICH
   0 ARE SEVERE DISCONTINUITY ITERATIONS AND  0 ARE EQUILIBRIUM ITERATIONS.


                              INCREMENT NUMBER     8
                              FREQUENCY =  0.40685279    


 ITERATION SUMMARY FOR THE INCREMENT:   0 TOTAL ITERATIONS, OF WHICH
   0 ARE SEVERE DISCONTINUITY ITERATIONS AND  0 ARE EQUILIBRIUM ITERATIONS.


                              INCREMENT NUMBER     9
                              FREQUENCY =  0.46497462    


 ITERATION SUMMARY FOR THE INCREMENT:   0 TOTAL ITERATIONS, OF WHICH
   0 ARE SEVERE DISCONTINUITY ITERATIONS AND  0 ARE EQUILIBRIUM ITERATIONS.


                              INCREMENT NUMBER    10
                              FREQUENCY =  0.52309644    


 ITERATION SUMMARY FOR THE INCREMENT:   0 TOTAL ITERATIONS, OF WHICH
   0 ARE SEVERE DISCONTINUITY ITERATIONS AND  0 ARE EQUILIBRIUM ITERATIONS.


                              INCREMENT NUMBER    11
                              FREQUENCY =  0.58121827    


 ITERATION SUMMARY FOR THE INCREMENT:   0 TOTAL ITERATIONS, OF WHICH
   0 ARE SEVERE DISCONTINUITY ITERATIONS AND  0 ARE EQUILIBRIUM ITERATIONS.


                              INCREMENT NUMBER    12
                              FREQUENCY =  0.63934010    


 ITERATION SUMMARY FOR THE INCREMENT:   0 TOTAL ITERATIONS, OF WHICH
   0 ARE SEVERE DISCONTINUITY ITERATIONS AND  0 ARE EQUILIBRIUM ITERATIONS.


                              INCREMENT NUMBER    13
                              FREQUENCY =  0.69746192    


 ITERATION SUMMARY FOR THE INCREMENT:   0 TOTAL ITERATIONS, OF WHICH
   0 ARE SEVERE DISCONTINUITY ITERATIONS AND  0 ARE EQUILIBRIUM ITERATIONS.


                              INCREMENT NUMBER    14
                              FREQUENCY =  0.75558375    


 ITERATION SUMMARY FOR THE INCREMENT:   0 TOTAL ITERATIONS, OF WHICH
   0 ARE SEVERE DISCONTINUITY ITERATIONS AND  0 ARE EQUILIBRIUM ITERATIONS.


                              INCREMENT NUMBER    15
                              FREQUENCY =  0.81370557    


 ITERATION SUMMARY FOR THE INCREMENT:   0 TOTAL ITERATIONS, OF WHICH
   0 ARE SEVERE DISCONTINUITY ITERATIONS AND  0 ARE EQUILIBRIUM ITERATIONS.


                              INCREMENT NUMBER    16
                              FREQUENCY =  0.87182740    


 ITERATION SUMMARY FOR THE INCREMENT:   0 TOTAL ITERATIONS, OF WHICH
   0 ARE SEVERE DISCONTINUITY ITERATIONS AND  0 ARE EQUILIBRIUM ITERATIONS.


                              INCREMENT NUMBER    17
                              FREQUENCY =  0.92994922    


 ITERATION SUMMARY FOR THE INCREMENT:   0 TOTAL ITERATIONS, OF WHICH
   0 ARE SEVERE DISCONTINUITY ITERATIONS AND  0 ARE EQUILIBRIUM ITERATIONS.


                              INCREMENT NUMBER    18
                              FREQUENCY =  0.98807105    


 ITERATION SUMMARY FOR THE INCREMENT:   0 TOTAL ITERATIONS, OF WHICH
   0 ARE SEVERE DISCONTINUITY ITERATIONS AND  0 ARE EQUILIBRIUM ITERATIONS.


                              INCREMENT NUMBER    19
                              FREQUENCY =   1.0461929    


 ITERATION SUMMARY FOR THE INCREMENT:   0 TOTAL ITERATIONS, OF WHICH
   0 ARE SEVERE DISCONTINUITY ITERATIONS AND  0 ARE EQUILIBRIUM ITERATIONS.


                              INCREMENT NUMBER    20
                              FREQUENCY =   1.1043147    


 ITERATION SUMMARY FOR THE INCREMENT:   0 TOTAL ITERATIONS, OF WHICH
   0 ARE SEVERE DISCONTINUITY ITERATIONS AND  0 ARE EQUILIBRIUM ITERATIONS.


                              INCREMENT NUMBER    21
                              FREQUENCY =   1.1624365    


 ITERATION SUMMARY FOR THE INCREMENT:   0 TOTAL ITERATIONS, OF WHICH
   0 ARE SEVERE DISCONTINUITY ITERATIONS AND  0 ARE EQUILIBRIUM ITERATIONS.


                              INCREMENT NUMBER    22
                              FREQUENCY =   1.2205584    


 ITERATION SUMMARY FOR THE INCREMENT:   0 TOTAL ITERATIONS, OF WHICH
   0 ARE SEVERE DISCONTINUITY ITERATIONS AND  0 ARE EQUILIBRIUM ITERATIONS.


                              INCREMENT NUMBER    23
                              FREQUENCY =   1.2786802    


 ITERATION SUMMARY FOR THE INCREMENT:   0 TOTAL ITERATIONS, OF WHICH
   0 ARE SEVERE DISCONTINUITY ITERATIONS AND  0 ARE EQUILIBRIUM ITERATIONS.


                              INCREMENT NUMBER    24
                              FREQUENCY =   1.3368020    


 ITERATION SUMMARY FOR THE INCREMENT:   0 TOTAL ITERATIONS, OF WHICH
   0 ARE SEVERE DISCONTINUITY ITERATIONS AND  0 ARE EQUILIBRIUM ITERATIONS.


                              INCREMENT NUMBER    25
                              FREQUENCY =   1.3949238    


 ITERATION SUMMARY FOR THE INCREMENT:   0 TOTAL ITERATIONS, OF WHICH
   0 ARE SEVERE DISCONTINUITY ITERATIONS AND  0 ARE EQUILIBRIUM ITERATIONS.


                              INCREMENT NUMBER    26
                              FREQUENCY =   1.4530457    


 ITERATION SUMMARY FOR THE INCREMENT:   0 TOTAL ITERATIONS, OF WHICH
   0 ARE SEVERE DISCONTINUITY ITERATIONS AND  0 ARE EQUILIBRIUM ITERATIONS.


                              INCREMENT NUMBER    27
                              FREQUENCY =   1.5111675    


 ITERATION SUMMARY FOR THE INCREMENT:   0 TOTAL ITERATIONS, OF WHICH
   0 ARE SEVERE DISCONTINUITY ITERATIONS AND  0 ARE EQUILIBRIUM ITERATIONS.


                              INCREMENT NUMBER    28
                              FREQUENCY =   1.5692893    


 ITERATION SUMMARY FOR THE INCREMENT:   0 TOTAL ITERATIONS, OF WHICH
   0 ARE SEVERE DISCONTINUITY ITERATIONS AND  0 ARE EQUILIBRIUM ITERATIONS.


                              INCREMENT NUMBER    29
                              FREQUENCY =   1.6274111    


 ITERATION SUMMARY FOR THE INCREMENT:   0 TOTAL ITERATIONS, OF WHICH
   0 ARE SEVERE DISCONTINUITY ITERATIONS AND  0 ARE EQUILIBRIUM ITERATIONS.


                              INCREMENT NUMBER    30
                              FREQUENCY =   1.6855330    


 ITERATION SUMMARY FOR THE INCREMENT:   0 TOTAL ITERATIONS, OF WHICH
   0 ARE SEVERE DISCONTINUITY ITERATIONS AND  0 ARE EQUILIBRIUM ITERATIONS.


                              INCREMENT NUMBER    31
                              FREQUENCY =   1.7436548    


 ITERATION SUMMARY FOR THE INCREMENT:   0 TOTAL ITERATIONS, OF WHICH
   0 ARE SEVERE DISCONTINUITY ITERATIONS AND  0 ARE EQUILIBRIUM ITERATIONS.


                              INCREMENT NUMBER    32
                              FREQUENCY =   1.8017766    


 ITERATION SUMMARY FOR THE INCREMENT:   0 TOTAL ITERATIONS, OF WHICH
   0 ARE SEVERE DISCONTINUITY ITERATIONS AND  0 ARE EQUILIBRIUM ITERATIONS.


                              INCREMENT NUMBER    33
                              FREQUENCY =   1.8598984    


 ITERATION SUMMARY FOR THE INCREMENT:   0 TOTAL ITERATIONS, OF WHICH
   0 ARE SEVERE DISCONTINUITY ITERATIONS AND  0 ARE EQUILIBRIUM ITERATIONS.


                              INCREMENT NUMBER    34
                              FREQUENCY =   1.9180203    


 ITERATION SUMMARY FOR THE INCREMENT:   0 TOTAL ITERATIONS, OF WHICH
   0 ARE SEVERE DISCONTINUITY ITERATIONS AND  0 ARE EQUILIBRIUM ITERATIONS.


                              INCREMENT NUMBER    35
                              FREQUENCY =   1.9761421    


 ITERATION SUMMARY FOR THE INCREMENT:   0 TOTAL ITERATIONS, OF WHICH
   0 ARE SEVERE DISCONTINUITY ITERATIONS AND  0 ARE EQUILIBRIUM ITERATIONS.


                              INCREMENT NUMBER    36
                              FREQUENCY =   2.0342639    


 ITERATION SUMMARY FOR THE INCREMENT:   0 TOTAL ITERATIONS, OF WHICH
   0 ARE SEVERE DISCONTINUITY ITERATIONS AND  0 ARE EQUILIBRIUM ITERATIONS.


                              INCREMENT NUMBER    37
                              FREQUENCY =   2.0923857    


 ITERATION SUMMARY FOR THE INCREMENT:   0 TOTAL ITERATIONS, OF WHICH
   0 ARE SEVERE DISCONTINUITY ITERATIONS AND  0 ARE EQUILIBRIUM ITERATIONS.


                              INCREMENT NUMBER    38
                              FREQUENCY =   2.1505076    


 ITERATION SUMMARY FOR THE INCREMENT:   0 TOTAL ITERATIONS, OF WHICH
   0 ARE SEVERE DISCONTINUITY ITERATIONS AND  0 ARE EQUILIBRIUM ITERATIONS.


                              INCREMENT NUMBER    39
                              FREQUENCY =   2.2086294    


 ITERATION SUMMARY FOR THE INCREMENT:   0 TOTAL ITERATIONS, OF WHICH
   0 ARE SEVERE DISCONTINUITY ITERATIONS AND  0 ARE EQUILIBRIUM ITERATIONS.


                              INCREMENT NUMBER    40
                              FREQUENCY =   2.2667512    


 ITERATION SUMMARY FOR THE INCREMENT:   0 TOTAL ITERATIONS, OF WHICH
   0 ARE SEVERE DISCONTINUITY ITERATIONS AND  0 ARE EQUILIBRIUM ITERATIONS.


                              INCREMENT NUMBER    41
                              FREQUENCY =   2.3248730    


 ITERATION SUMMARY FOR THE INCREMENT:   0 TOTAL ITERATIONS, OF WHICH
   0 ARE SEVERE DISCONTINUITY ITERATIONS AND  0 ARE EQUILIBRIUM ITERATIONS.


                              INCREMENT NUMBER    42
                              FREQUENCY =   2.3829949    


 ITERATION SUMMARY FOR THE INCREMENT:   0 TOTAL ITERATIONS, OF WHICH
   0 ARE SEVERE DISCONTINUITY ITERATIONS AND  0 ARE EQUILIBRIUM ITERATIONS.


                              INCREMENT NUMBER    43
                              FREQUENCY =   2.4411167    


 ITERATION SUMMARY FOR THE INCREMENT:   0 TOTAL ITERATIONS, OF WHICH
   0 ARE SEVERE DISCONTINUITY ITERATIONS AND  0 ARE EQUILIBRIUM ITERATIONS.


                              INCREMENT NUMBER    44
                              FREQUENCY =   2.4992385    


 ITERATION SUMMARY FOR THE INCREMENT:   0 TOTAL ITERATIONS, OF WHICH
   0 ARE SEVERE DISCONTINUITY ITERATIONS AND  0 ARE EQUILIBRIUM ITERATIONS.


                              INCREMENT NUMBER    45
                              FREQUENCY =   2.5573603    


 ITERATION SUMMARY FOR THE INCREMENT:   0 TOTAL ITERATIONS, OF WHICH
   0 ARE SEVERE DISCONTINUITY ITERATIONS AND  0 ARE EQUILIBRIUM ITERATIONS.


                              INCREMENT NUMBER    46
                              FREQUENCY =   2.6154822    


 ITERATION SUMMARY FOR THE INCREMENT:   0 TOTAL ITERATIONS, OF WHICH
   0 ARE SEVERE DISCONTINUITY ITERATIONS AND  0 ARE EQUILIBRIUM ITERATIONS.


                              INCREMENT NUMBER    47
                              FREQUENCY =   2.6736040    


 ITERATION SUMMARY FOR THE INCREMENT:   0 TOTAL ITERATIONS, OF WHICH
   0 ARE SEVERE DISCONTINUITY ITERATIONS AND  0 ARE EQUILIBRIUM ITERATIONS.


                              INCREMENT NUMBER    48
                              FREQUENCY =   2.7317258    


 ITERATION SUMMARY FOR THE INCREMENT:   0 TOTAL ITERATIONS, OF WHICH
   0 ARE SEVERE DISCONTINUITY ITERATIONS AND  0 ARE EQUILIBRIUM ITERATIONS.


                              INCREMENT NUMBER    49
                              FREQUENCY =   2.7898476    


 ITERATION SUMMARY FOR THE INCREMENT:   0 TOTAL ITERATIONS, OF WHICH
   0 ARE SEVERE DISCONTINUITY ITERATIONS AND  0 ARE EQUILIBRIUM ITERATIONS.


                              INCREMENT NUMBER    50
                              FREQUENCY =   2.8479695    


 ITERATION SUMMARY FOR THE INCREMENT:   0 TOTAL ITERATIONS, OF WHICH
   0 ARE SEVERE DISCONTINUITY ITERATIONS AND  0 ARE EQUILIBRIUM ITERATIONS.


                              INCREMENT NUMBER    51
                              FREQUENCY =   2.9060913    


 ITERATION SUMMARY FOR THE INCREMENT:   0 TOTAL ITERATIONS, OF WHICH
   0 ARE SEVERE DISCONTINUITY ITERATIONS AND  0 ARE EQUILIBRIUM ITERATIONS.


                              INCREMENT NUMBER    52
                              FREQUENCY =   2.9642131    


 ITERATION SUMMARY FOR THE INCREMENT:   0 TOTAL ITERATIONS, OF WHICH
   0 ARE SEVERE DISCONTINUITY ITERATIONS AND  0 ARE EQUILIBRIUM ITERATIONS.


                              INCREMENT NUMBER    53
                              FREQUENCY =   3.0223349    


 ITERATION SUMMARY FOR THE INCREMENT:   0 TOTAL ITERATIONS, OF WHICH
   0 ARE SEVERE DISCONTINUITY ITERATIONS AND  0 ARE EQUILIBRIUM ITERATIONS.


                              INCREMENT NUMBER    54
                              FREQUENCY =   3.0804568    


 ITERATION SUMMARY FOR THE INCREMENT:   0 TOTAL ITERATIONS, OF WHICH
   0 ARE SEVERE DISCONTINUITY ITERATIONS AND  0 ARE EQUILIBRIUM ITERATIONS.


                              INCREMENT NUMBER    55
                              FREQUENCY =   3.1385786    


 ITERATION SUMMARY FOR THE INCREMENT:   0 TOTAL ITERATIONS, OF WHICH
   0 ARE SEVERE DISCONTINUITY ITERATIONS AND  0 ARE EQUILIBRIUM ITERATIONS.


                              INCREMENT NUMBER    56
                              FREQUENCY =   3.1967004    


 ITERATION SUMMARY FOR THE INCREMENT:   0 TOTAL ITERATIONS, OF WHICH
   0 ARE SEVERE DISCONTINUITY ITERATIONS AND  0 ARE EQUILIBRIUM ITERATIONS.


                              INCREMENT NUMBER    57
                              FREQUENCY =   3.2548222    


 ITERATION SUMMARY FOR THE INCREMENT:   0 TOTAL ITERATIONS, OF WHICH
   0 ARE SEVERE DISCONTINUITY ITERATIONS AND  0 ARE EQUILIBRIUM ITERATIONS.


                              INCREMENT NUMBER    58
                              FREQUENCY =   3.3129441    


 ITERATION SUMMARY FOR THE INCREMENT:   0 TOTAL ITERATIONS, OF WHICH
   0 ARE SEVERE DISCONTINUITY ITERATIONS AND  0 ARE EQUILIBRIUM ITERATIONS.


                              INCREMENT NUMBER    59
                              FREQUENCY =   3.3710659    


 ITERATION SUMMARY FOR THE INCREMENT:   0 TOTAL ITERATIONS, OF WHICH
   0 ARE SEVERE DISCONTINUITY ITERATIONS AND  0 ARE EQUILIBRIUM ITERATIONS.


                              INCREMENT NUMBER    60
                              FREQUENCY =   3.4291877    


 ITERATION SUMMARY FOR THE INCREMENT:   0 TOTAL ITERATIONS, OF WHICH
   0 ARE SEVERE DISCONTINUITY ITERATIONS AND  0 ARE EQUILIBRIUM ITERATIONS.


                              INCREMENT NUMBER    61
                              FREQUENCY =   3.4873095    


 ITERATION SUMMARY FOR THE INCREMENT:   0 TOTAL ITERATIONS, OF WHICH
   0 ARE SEVERE DISCONTINUITY ITERATIONS AND  0 ARE EQUILIBRIUM ITERATIONS.


                              INCREMENT NUMBER    62
                              FREQUENCY =   3.5454314    


 ITERATION SUMMARY FOR THE INCREMENT:   0 TOTAL ITERATIONS, OF WHICH
   0 ARE SEVERE DISCONTINUITY ITERATIONS AND  0 ARE EQUILIBRIUM ITERATIONS.


                              INCREMENT NUMBER    63
                              FREQUENCY =   3.6035532    


 ITERATION SUMMARY FOR THE INCREMENT:   0 TOTAL ITERATIONS, OF WHICH
   0 ARE SEVERE DISCONTINUITY ITERATIONS AND  0 ARE EQUILIBRIUM ITERATIONS.


                              INCREMENT NUMBER    64
                              FREQUENCY =   3.6616750    


 ITERATION SUMMARY FOR THE INCREMENT:   0 TOTAL ITERATIONS, OF WHICH
   0 ARE SEVERE DISCONTINUITY ITERATIONS AND  0 ARE EQUILIBRIUM ITERATIONS.


                              INCREMENT NUMBER    65
                              FREQUENCY =   3.7197968    


 ITERATION SUMMARY FOR THE INCREMENT:   0 TOTAL ITERATIONS, OF WHICH
   0 ARE SEVERE DISCONTINUITY ITERATIONS AND  0 ARE EQUILIBRIUM ITERATIONS.


                              INCREMENT NUMBER    66
                              FREQUENCY =   3.7779187    


 ITERATION SUMMARY FOR THE INCREMENT:   0 TOTAL ITERATIONS, OF WHICH
   0 ARE SEVERE DISCONTINUITY ITERATIONS AND  0 ARE EQUILIBRIUM ITERATIONS.


                              INCREMENT NUMBER    67
                              FREQUENCY =   3.8360405    


 ITERATION SUMMARY FOR THE INCREMENT:   0 TOTAL ITERATIONS, OF WHICH
   0 ARE SEVERE DISCONTINUITY ITERATIONS AND  0 ARE EQUILIBRIUM ITERATIONS.


                              INCREMENT NUMBER    68
                              FREQUENCY =   3.8941623    


 ITERATION SUMMARY FOR THE INCREMENT:   0 TOTAL ITERATIONS, OF WHICH
   0 ARE SEVERE DISCONTINUITY ITERATIONS AND  0 ARE EQUILIBRIUM ITERATIONS.


                              INCREMENT NUMBER    69
                              FREQUENCY =   3.9522841    


 ITERATION SUMMARY FOR THE INCREMENT:   0 TOTAL ITERATIONS, OF WHICH
   0 ARE SEVERE DISCONTINUITY ITERATIONS AND  0 ARE EQUILIBRIUM ITERATIONS.


                              INCREMENT NUMBER    70
                              FREQUENCY =   4.0104060    


 ITERATION SUMMARY FOR THE INCREMENT:   0 TOTAL ITERATIONS, OF WHICH
   0 ARE SEVERE DISCONTINUITY ITERATIONS AND  0 ARE EQUILIBRIUM ITERATIONS.


                              INCREMENT NUMBER    71
                              FREQUENCY =   4.0685278    


 ITERATION SUMMARY FOR THE INCREMENT:   0 TOTAL ITERATIONS, OF WHICH
   0 ARE SEVERE DISCONTINUITY ITERATIONS AND  0 ARE EQUILIBRIUM ITERATIONS.


                              INCREMENT NUMBER    72
                              FREQUENCY =   4.1266496    


 ITERATION SUMMARY FOR THE INCREMENT:   0 TOTAL ITERATIONS, OF WHICH
   0 ARE SEVERE DISCONTINUITY ITERATIONS AND  0 ARE EQUILIBRIUM ITERATIONS.


                              INCREMENT NUMBER    73
                              FREQUENCY =   4.1847715    


 ITERATION SUMMARY FOR THE INCREMENT:   0 TOTAL ITERATIONS, OF WHICH
   0 ARE SEVERE DISCONTINUITY ITERATIONS AND  0 ARE EQUILIBRIUM ITERATIONS.


                              INCREMENT NUMBER    74
                              FREQUENCY =   4.2428933    


 ITERATION SUMMARY FOR THE INCREMENT:   0 TOTAL ITERATIONS, OF WHICH
   0 ARE SEVERE DISCONTINUITY ITERATIONS AND  0 ARE EQUILIBRIUM ITERATIONS.


                              INCREMENT NUMBER    75
                              FREQUENCY =   4.3010151    


 ITERATION SUMMARY FOR THE INCREMENT:   0 TOTAL ITERATIONS, OF WHICH
   0 ARE SEVERE DISCONTINUITY ITERATIONS AND  0 ARE EQUILIBRIUM ITERATIONS.


                              INCREMENT NUMBER    76
                              FREQUENCY =   4.3591369    


 ITERATION SUMMARY FOR THE INCREMENT:   0 TOTAL ITERATIONS, OF WHICH
   0 ARE SEVERE DISCONTINUITY ITERATIONS AND  0 ARE EQUILIBRIUM ITERATIONS.


                              INCREMENT NUMBER    77
                              FREQUENCY =   4.4172588    


 ITERATION SUMMARY FOR THE INCREMENT:   0 TOTAL ITERATIONS, OF WHICH
   0 ARE SEVERE DISCONTINUITY ITERATIONS AND  0 ARE EQUILIBRIUM ITERATIONS.


                              INCREMENT NUMBER    78
                              FREQUENCY =   4.4753806    


 ITERATION SUMMARY FOR THE INCREMENT:   0 TOTAL ITERATIONS, OF WHICH
   0 ARE SEVERE DISCONTINUITY ITERATIONS AND  0 ARE EQUILIBRIUM ITERATIONS.


                              INCREMENT NUMBER    79
                              FREQUENCY =   4.5335024    


 ITERATION SUMMARY FOR THE INCREMENT:   0 TOTAL ITERATIONS, OF WHICH
   0 ARE SEVERE DISCONTINUITY ITERATIONS AND  0 ARE EQUILIBRIUM ITERATIONS.


                              INCREMENT NUMBER    80
                              FREQUENCY =   4.5916242    


 ITERATION SUMMARY FOR THE INCREMENT:   0 TOTAL ITERATIONS, OF WHICH
   0 ARE SEVERE DISCONTINUITY ITERATIONS AND  0 ARE EQUILIBRIUM ITERATIONS.


                              INCREMENT NUMBER    81
                              FREQUENCY =   4.6497461    


 ITERATION SUMMARY FOR THE INCREMENT:   0 TOTAL ITERATIONS, OF WHICH
   0 ARE SEVERE DISCONTINUITY ITERATIONS AND  0 ARE EQUILIBRIUM ITERATIONS.


                              INCREMENT NUMBER    82
                              FREQUENCY =   4.7078679    


 ITERATION SUMMARY FOR THE INCREMENT:   0 TOTAL ITERATIONS, OF WHICH
   0 ARE SEVERE DISCONTINUITY ITERATIONS AND  0 ARE EQUILIBRIUM ITERATIONS.


                              INCREMENT NUMBER    83
                              FREQUENCY =   4.7659897    


 ITERATION SUMMARY FOR THE INCREMENT:   0 TOTAL ITERATIONS, OF WHICH
   0 ARE SEVERE DISCONTINUITY ITERATIONS AND  0 ARE EQUILIBRIUM ITERATIONS.


                              INCREMENT NUMBER    84
                              FREQUENCY =   4.8241115    


 ITERATION SUMMARY FOR THE INCREMENT:   0 TOTAL ITERATIONS, OF WHICH
   0 ARE SEVERE DISCONTINUITY ITERATIONS AND  0 ARE EQUILIBRIUM ITERATIONS.


                              INCREMENT NUMBER    85
                              FREQUENCY =   4.8822334    


 ITERATION SUMMARY FOR THE INCREMENT:   0 TOTAL ITERATIONS, OF WHICH
   0 ARE SEVERE DISCONTINUITY ITERATIONS AND  0 ARE EQUILIBRIUM ITERATIONS.


                              INCREMENT NUMBER    86
                              FREQUENCY =   4.9403552    


 ITERATION SUMMARY FOR THE INCREMENT:   0 TOTAL ITERATIONS, OF WHICH
   0 ARE SEVERE DISCONTINUITY ITERATIONS AND  0 ARE EQUILIBRIUM ITERATIONS.


                              INCREMENT NUMBER    87
                              FREQUENCY =   4.9984770    


 ITERATION SUMMARY FOR THE INCREMENT:   0 TOTAL ITERATIONS, OF WHICH
   0 ARE SEVERE DISCONTINUITY ITERATIONS AND  0 ARE EQUILIBRIUM ITERATIONS.


                              INCREMENT NUMBER    88
                              FREQUENCY =   5.0565988    


 ITERATION SUMMARY FOR THE INCREMENT:   0 TOTAL ITERATIONS, OF WHICH
   0 ARE SEVERE DISCONTINUITY ITERATIONS AND  0 ARE EQUILIBRIUM ITERATIONS.


                              INCREMENT NUMBER    89
                              FREQUENCY =   5.1147207    


 ITERATION SUMMARY FOR THE INCREMENT:   0 TOTAL ITERATIONS, OF WHICH
   0 ARE SEVERE DISCONTINUITY ITERATIONS AND  0 ARE EQUILIBRIUM ITERATIONS.


                              INCREMENT NUMBER    90
                              FREQUENCY =   5.1728425    


 ITERATION SUMMARY FOR THE INCREMENT:   0 TOTAL ITERATIONS, OF WHICH
   0 ARE SEVERE DISCONTINUITY ITERATIONS AND  0 ARE EQUILIBRIUM ITERATIONS.


                              INCREMENT NUMBER    91
                              FREQUENCY =   5.2309643    


 ITERATION SUMMARY FOR THE INCREMENT:   0 TOTAL ITERATIONS, OF WHICH
   0 ARE SEVERE DISCONTINUITY ITERATIONS AND  0 ARE EQUILIBRIUM ITERATIONS.


                              INCREMENT NUMBER    92
                              FREQUENCY =   5.2890861    


 ITERATION SUMMARY FOR THE INCREMENT:   0 TOTAL ITERATIONS, OF WHICH
   0 ARE SEVERE DISCONTINUITY ITERATIONS AND  0 ARE EQUILIBRIUM ITERATIONS.


                              INCREMENT NUMBER    93
                              FREQUENCY =   5.3472080    


 ITERATION SUMMARY FOR THE INCREMENT:   0 TOTAL ITERATIONS, OF WHICH
   0 ARE SEVERE DISCONTINUITY ITERATIONS AND  0 ARE EQUILIBRIUM ITERATIONS.


                              INCREMENT NUMBER    94
                              FREQUENCY =   5.4053298    


 ITERATION SUMMARY FOR THE INCREMENT:   0 TOTAL ITERATIONS, OF WHICH
   0 ARE SEVERE DISCONTINUITY ITERATIONS AND  0 ARE EQUILIBRIUM ITERATIONS.


                              INCREMENT NUMBER    95
                              FREQUENCY =   5.4634516    


 ITERATION SUMMARY FOR THE INCREMENT:   0 TOTAL ITERATIONS, OF WHICH
   0 ARE SEVERE DISCONTINUITY ITERATIONS AND  0 ARE EQUILIBRIUM ITERATIONS.


                              INCREMENT NUMBER    96
                              FREQUENCY =   5.5215734    


 ITERATION SUMMARY FOR THE INCREMENT:   0 TOTAL ITERATIONS, OF WHICH
   0 ARE SEVERE DISCONTINUITY ITERATIONS AND  0 ARE EQUILIBRIUM ITERATIONS.


                              INCREMENT NUMBER    97
                              FREQUENCY =   5.5796953    


 ITERATION SUMMARY FOR THE INCREMENT:   0 TOTAL ITERATIONS, OF WHICH
   0 ARE SEVERE DISCONTINUITY ITERATIONS AND  0 ARE EQUILIBRIUM ITERATIONS.


                              INCREMENT NUMBER    98
                              FREQUENCY =   5.6378171    


 ITERATION SUMMARY FOR THE INCREMENT:   0 TOTAL ITERATIONS, OF WHICH
   0 ARE SEVERE DISCONTINUITY ITERATIONS AND  0 ARE EQUILIBRIUM ITERATIONS.


                              INCREMENT NUMBER    99
                              FREQUENCY =   5.6959389    


 ITERATION SUMMARY FOR THE INCREMENT:   0 TOTAL ITERATIONS, OF WHICH
   0 ARE SEVERE DISCONTINUITY ITERATIONS AND  0 ARE EQUILIBRIUM ITERATIONS.


                              INCREMENT NUMBER   100
                              FREQUENCY =   5.7540607    


 ITERATION SUMMARY FOR THE INCREMENT:   0 TOTAL ITERATIONS, OF WHICH
   0 ARE SEVERE DISCONTINUITY ITERATIONS AND  0 ARE EQUILIBRIUM ITERATIONS.


                              INCREMENT NUMBER   101
                              FREQUENCY =   5.8121826    


 ITERATION SUMMARY FOR THE INCREMENT:   0 TOTAL ITERATIONS, OF WHICH
   0 ARE SEVERE DISCONTINUITY ITERATIONS AND  0 ARE EQUILIBRIUM ITERATIONS.


                              INCREMENT NUMBER   102
                              FREQUENCY =   5.8703044    


 ITERATION SUMMARY FOR THE INCREMENT:   0 TOTAL ITERATIONS, OF WHICH
   0 ARE SEVERE DISCONTINUITY ITERATIONS AND  0 ARE EQUILIBRIUM ITERATIONS.


                              INCREMENT NUMBER   103
                              FREQUENCY =   5.9284262    


 ITERATION SUMMARY FOR THE INCREMENT:   0 TOTAL ITERATIONS, OF WHICH
   0 ARE SEVERE DISCONTINUITY ITERATIONS AND  0 ARE EQUILIBRIUM ITERATIONS.


                              INCREMENT NUMBER   104
                              FREQUENCY =   5.9865480    


 ITERATION SUMMARY FOR THE INCREMENT:   0 TOTAL ITERATIONS, OF WHICH
   0 ARE SEVERE DISCONTINUITY ITERATIONS AND  0 ARE EQUILIBRIUM ITERATIONS.


                              INCREMENT NUMBER   105
                              FREQUENCY =   6.0446699    


 ITERATION SUMMARY FOR THE INCREMENT:   0 TOTAL ITERATIONS, OF WHICH
   0 ARE SEVERE DISCONTINUITY ITERATIONS AND  0 ARE EQUILIBRIUM ITERATIONS.


                              INCREMENT NUMBER   106
                              FREQUENCY =   6.1027917    


 ITERATION SUMMARY FOR THE INCREMENT:   0 TOTAL ITERATIONS, OF WHICH
   0 ARE SEVERE DISCONTINUITY ITERATIONS AND  0 ARE EQUILIBRIUM ITERATIONS.


                              INCREMENT NUMBER   107
                              FREQUENCY =   6.1609135    


 ITERATION SUMMARY FOR THE INCREMENT:   0 TOTAL ITERATIONS, OF WHICH
   0 ARE SEVERE DISCONTINUITY ITERATIONS AND  0 ARE EQUILIBRIUM ITERATIONS.


                              INCREMENT NUMBER   108
                              FREQUENCY =   6.2190353    


 ITERATION SUMMARY FOR THE INCREMENT:   0 TOTAL ITERATIONS, OF WHICH
   0 ARE SEVERE DISCONTINUITY ITERATIONS AND  0 ARE EQUILIBRIUM ITERATIONS.


                              INCREMENT NUMBER   109
                              FREQUENCY =   6.2771572    


 ITERATION SUMMARY FOR THE INCREMENT:   0 TOTAL ITERATIONS, OF WHICH
   0 ARE SEVERE DISCONTINUITY ITERATIONS AND  0 ARE EQUILIBRIUM ITERATIONS.


                              INCREMENT NUMBER   110
                              FREQUENCY =   6.3352790    


 ITERATION SUMMARY FOR THE INCREMENT:   0 TOTAL ITERATIONS, OF WHICH
   0 ARE SEVERE DISCONTINUITY ITERATIONS AND  0 ARE EQUILIBRIUM ITERATIONS.


                              INCREMENT NUMBER   111
                              FREQUENCY =   6.3934008    


 ITERATION SUMMARY FOR THE INCREMENT:   0 TOTAL ITERATIONS, OF WHICH
   0 ARE SEVERE DISCONTINUITY ITERATIONS AND  0 ARE EQUILIBRIUM ITERATIONS.


                              INCREMENT NUMBER   112
                              FREQUENCY =   6.4515226    


 ITERATION SUMMARY FOR THE INCREMENT:   0 TOTAL ITERATIONS, OF WHICH
   0 ARE SEVERE DISCONTINUITY ITERATIONS AND  0 ARE EQUILIBRIUM ITERATIONS.


                              INCREMENT NUMBER   113
                              FREQUENCY =   6.5096445    


 ITERATION SUMMARY FOR THE INCREMENT:   0 TOTAL ITERATIONS, OF WHICH
   0 ARE SEVERE DISCONTINUITY ITERATIONS AND  0 ARE EQUILIBRIUM ITERATIONS.


                              INCREMENT NUMBER   114
                              FREQUENCY =   6.5677663    


 ITERATION SUMMARY FOR THE INCREMENT:   0 TOTAL ITERATIONS, OF WHICH
   0 ARE SEVERE DISCONTINUITY ITERATIONS AND  0 ARE EQUILIBRIUM ITERATIONS.


                              INCREMENT NUMBER   115
                              FREQUENCY =   6.6258881    


 ITERATION SUMMARY FOR THE INCREMENT:   0 TOTAL ITERATIONS, OF WHICH
   0 ARE SEVERE DISCONTINUITY ITERATIONS AND  0 ARE EQUILIBRIUM ITERATIONS.


                              INCREMENT NUMBER   116
                              FREQUENCY =   6.6840099    


 ITERATION SUMMARY FOR THE INCREMENT:   0 TOTAL ITERATIONS, OF WHICH
   0 ARE SEVERE DISCONTINUITY ITERATIONS AND  0 ARE EQUILIBRIUM ITERATIONS.


                              INCREMENT NUMBER   117
                              FREQUENCY =   6.7421318    


 ITERATION SUMMARY FOR THE INCREMENT:   0 TOTAL ITERATIONS, OF WHICH
   0 ARE SEVERE DISCONTINUITY ITERATIONS AND  0 ARE EQUILIBRIUM ITERATIONS.


                              INCREMENT NUMBER   118
                              FREQUENCY =   6.8002536    


 ITERATION SUMMARY FOR THE INCREMENT:   0 TOTAL ITERATIONS, OF WHICH
   0 ARE SEVERE DISCONTINUITY ITERATIONS AND  0 ARE EQUILIBRIUM ITERATIONS.


                              INCREMENT NUMBER   119
                              FREQUENCY =   6.8583754    


 ITERATION SUMMARY FOR THE INCREMENT:   0 TOTAL ITERATIONS, OF WHICH
   0 ARE SEVERE DISCONTINUITY ITERATIONS AND  0 ARE EQUILIBRIUM ITERATIONS.


                              INCREMENT NUMBER   120
                              FREQUENCY =   6.9164972    


 ITERATION SUMMARY FOR THE INCREMENT:   0 TOTAL ITERATIONS, OF WHICH
   0 ARE SEVERE DISCONTINUITY ITERATIONS AND  0 ARE EQUILIBRIUM ITERATIONS.


                              INCREMENT NUMBER   121
                              FREQUENCY =   6.9746191    


 ITERATION SUMMARY FOR THE INCREMENT:   0 TOTAL ITERATIONS, OF WHICH
   0 ARE SEVERE DISCONTINUITY ITERATIONS AND  0 ARE EQUILIBRIUM ITERATIONS.


                              INCREMENT NUMBER   122
                              FREQUENCY =   7.0327409    


 ITERATION SUMMARY FOR THE INCREMENT:   0 TOTAL ITERATIONS, OF WHICH
   0 ARE SEVERE DISCONTINUITY ITERATIONS AND  0 ARE EQUILIBRIUM ITERATIONS.


                              INCREMENT NUMBER   123
                              FREQUENCY =   7.0908627    


 ITERATION SUMMARY FOR THE INCREMENT:   0 TOTAL ITERATIONS, OF WHICH
   0 ARE SEVERE DISCONTINUITY ITERATIONS AND  0 ARE EQUILIBRIUM ITERATIONS.


                              INCREMENT NUMBER   124
                              FREQUENCY =   7.1489846    


 ITERATION SUMMARY FOR THE INCREMENT:   0 TOTAL ITERATIONS, OF WHICH
   0 ARE SEVERE DISCONTINUITY ITERATIONS AND  0 ARE EQUILIBRIUM ITERATIONS.


                              INCREMENT NUMBER   125
                              FREQUENCY =   7.2071064    


 ITERATION SUMMARY FOR THE INCREMENT:   0 TOTAL ITERATIONS, OF WHICH
   0 ARE SEVERE DISCONTINUITY ITERATIONS AND  0 ARE EQUILIBRIUM ITERATIONS.


                              INCREMENT NUMBER   126
                              FREQUENCY =   7.2652282    


 ITERATION SUMMARY FOR THE INCREMENT:   0 TOTAL ITERATIONS, OF WHICH
   0 ARE SEVERE DISCONTINUITY ITERATIONS AND  0 ARE EQUILIBRIUM ITERATIONS.


                              INCREMENT NUMBER   127
                              FREQUENCY =   7.3233500    


 ITERATION SUMMARY FOR THE INCREMENT:   0 TOTAL ITERATIONS, OF WHICH
   0 ARE SEVERE DISCONTINUITY ITERATIONS AND  0 ARE EQUILIBRIUM ITERATIONS.


                              INCREMENT NUMBER   128
                              FREQUENCY =   7.3814719    


 ITERATION SUMMARY FOR THE INCREMENT:   0 TOTAL ITERATIONS, OF WHICH
   0 ARE SEVERE DISCONTINUITY ITERATIONS AND  0 ARE EQUILIBRIUM ITERATIONS.


                              INCREMENT NUMBER   129
                              FREQUENCY =   7.4395937    


 ITERATION SUMMARY FOR THE INCREMENT:   0 TOTAL ITERATIONS, OF WHICH
   0 ARE SEVERE DISCONTINUITY ITERATIONS AND  0 ARE EQUILIBRIUM ITERATIONS.


                              INCREMENT NUMBER   130
                              FREQUENCY =   7.4977155    


 ITERATION SUMMARY FOR THE INCREMENT:   0 TOTAL ITERATIONS, OF WHICH
   0 ARE SEVERE DISCONTINUITY ITERATIONS AND  0 ARE EQUILIBRIUM ITERATIONS.


                              INCREMENT NUMBER   131
                              FREQUENCY =   7.5558373    


 ITERATION SUMMARY FOR THE INCREMENT:   0 TOTAL ITERATIONS, OF WHICH
   0 ARE SEVERE DISCONTINUITY ITERATIONS AND  0 ARE EQUILIBRIUM ITERATIONS.


                              INCREMENT NUMBER   132
                              FREQUENCY =   7.6139592    


 ITERATION SUMMARY FOR THE INCREMENT:   0 TOTAL ITERATIONS, OF WHICH
   0 ARE SEVERE DISCONTINUITY ITERATIONS AND  0 ARE EQUILIBRIUM ITERATIONS.


                              INCREMENT NUMBER   133
                              FREQUENCY =   7.6720810    


 ITERATION SUMMARY FOR THE INCREMENT:   0 TOTAL ITERATIONS, OF WHICH
   0 ARE SEVERE DISCONTINUITY ITERATIONS AND  0 ARE EQUILIBRIUM ITERATIONS.


                              INCREMENT NUMBER   134
                              FREQUENCY =   7.7302028    


 ITERATION SUMMARY FOR THE INCREMENT:   0 TOTAL ITERATIONS, OF WHICH
   0 ARE SEVERE DISCONTINUITY ITERATIONS AND  0 ARE EQUILIBRIUM ITERATIONS.


                              INCREMENT NUMBER   135
                              FREQUENCY =   7.7883246    


 ITERATION SUMMARY FOR THE INCREMENT:   0 TOTAL ITERATIONS, OF WHICH
   0 ARE SEVERE DISCONTINUITY ITERATIONS AND  0 ARE EQUILIBRIUM ITERATIONS.


                              INCREMENT NUMBER   136
                              FREQUENCY =   7.8464465    


 ITERATION SUMMARY FOR THE INCREMENT:   0 TOTAL ITERATIONS, OF WHICH
   0 ARE SEVERE DISCONTINUITY ITERATIONS AND  0 ARE EQUILIBRIUM ITERATIONS.


                              INCREMENT NUMBER   137
                              FREQUENCY =   7.9045683    


 ITERATION SUMMARY FOR THE INCREMENT:   0 TOTAL ITERATIONS, OF WHICH
   0 ARE SEVERE DISCONTINUITY ITERATIONS AND  0 ARE EQUILIBRIUM ITERATIONS.


                              INCREMENT NUMBER   138
                              FREQUENCY =   7.9626901    


 ITERATION SUMMARY FOR THE INCREMENT:   0 TOTAL ITERATIONS, OF WHICH
   0 ARE SEVERE DISCONTINUITY ITERATIONS AND  0 ARE EQUILIBRIUM ITERATIONS.


                              INCREMENT NUMBER   139
                              FREQUENCY =   8.0208119    


 ITERATION SUMMARY FOR THE INCREMENT:   0 TOTAL ITERATIONS, OF WHICH
   0 ARE SEVERE DISCONTINUITY ITERATIONS AND  0 ARE EQUILIBRIUM ITERATIONS.


                              INCREMENT NUMBER   140
                              FREQUENCY =   8.0789338    


 ITERATION SUMMARY FOR THE INCREMENT:   0 TOTAL ITERATIONS, OF WHICH
   0 ARE SEVERE DISCONTINUITY ITERATIONS AND  0 ARE EQUILIBRIUM ITERATIONS.


                              INCREMENT NUMBER   141
                              FREQUENCY =   8.1370556    


 ITERATION SUMMARY FOR THE INCREMENT:   0 TOTAL ITERATIONS, OF WHICH
   0 ARE SEVERE DISCONTINUITY ITERATIONS AND  0 ARE EQUILIBRIUM ITERATIONS.


                              INCREMENT NUMBER   142
                              FREQUENCY =   8.1951774    


 ITERATION SUMMARY FOR THE INCREMENT:   0 TOTAL ITERATIONS, OF WHICH
   0 ARE SEVERE DISCONTINUITY ITERATIONS AND  0 ARE EQUILIBRIUM ITERATIONS.


                              INCREMENT NUMBER   143
                              FREQUENCY =   8.2532992    


 ITERATION SUMMARY FOR THE INCREMENT:   0 TOTAL ITERATIONS, OF WHICH
   0 ARE SEVERE DISCONTINUITY ITERATIONS AND  0 ARE EQUILIBRIUM ITERATIONS.


                              INCREMENT NUMBER   144
                              FREQUENCY =   8.3114211    


 ITERATION SUMMARY FOR THE INCREMENT:   0 TOTAL ITERATIONS, OF WHICH
   0 ARE SEVERE DISCONTINUITY ITERATIONS AND  0 ARE EQUILIBRIUM ITERATIONS.


                              INCREMENT NUMBER   145
                              FREQUENCY =   8.3695429    


 ITERATION SUMMARY FOR THE INCREMENT:   0 TOTAL ITERATIONS, OF WHICH
   0 ARE SEVERE DISCONTINUITY ITERATIONS AND  0 ARE EQUILIBRIUM ITERATIONS.


                              INCREMENT NUMBER   146
                              FREQUENCY =   8.4276647    


 ITERATION SUMMARY FOR THE INCREMENT:   0 TOTAL ITERATIONS, OF WHICH
   0 ARE SEVERE DISCONTINUITY ITERATIONS AND  0 ARE EQUILIBRIUM ITERATIONS.


                              INCREMENT NUMBER   147
                              FREQUENCY =   8.4857865    


 ITERATION SUMMARY FOR THE INCREMENT:   0 TOTAL ITERATIONS, OF WHICH
   0 ARE SEVERE DISCONTINUITY ITERATIONS AND  0 ARE EQUILIBRIUM ITERATIONS.


                              INCREMENT NUMBER   148
                              FREQUENCY =   8.5439084    


 ITERATION SUMMARY FOR THE INCREMENT:   0 TOTAL ITERATIONS, OF WHICH
   0 ARE SEVERE DISCONTINUITY ITERATIONS AND  0 ARE EQUILIBRIUM ITERATIONS.


                              INCREMENT NUMBER   149
                              FREQUENCY =   8.6020302    


 ITERATION SUMMARY FOR THE INCREMENT:   0 TOTAL ITERATIONS, OF WHICH
   0 ARE SEVERE DISCONTINUITY ITERATIONS AND  0 ARE EQUILIBRIUM ITERATIONS.


                              INCREMENT NUMBER   150
                              FREQUENCY =   8.6601520    


 ITERATION SUMMARY FOR THE INCREMENT:   0 TOTAL ITERATIONS, OF WHICH
   0 ARE SEVERE DISCONTINUITY ITERATIONS AND  0 ARE EQUILIBRIUM ITERATIONS.


                              INCREMENT NUMBER   151
                              FREQUENCY =   8.7182738    


 ITERATION SUMMARY FOR THE INCREMENT:   0 TOTAL ITERATIONS, OF WHICH
   0 ARE SEVERE DISCONTINUITY ITERATIONS AND  0 ARE EQUILIBRIUM ITERATIONS.


                              INCREMENT NUMBER   152
                              FREQUENCY =   8.7763957    


 ITERATION SUMMARY FOR THE INCREMENT:   0 TOTAL ITERATIONS, OF WHICH
   0 ARE SEVERE DISCONTINUITY ITERATIONS AND  0 ARE EQUILIBRIUM ITERATIONS.


                              INCREMENT NUMBER   153
                              FREQUENCY =   8.8345175    


 ITERATION SUMMARY FOR THE INCREMENT:   0 TOTAL ITERATIONS, OF WHICH
   0 ARE SEVERE DISCONTINUITY ITERATIONS AND  0 ARE EQUILIBRIUM ITERATIONS.


                              INCREMENT NUMBER   154
                              FREQUENCY =   8.8926393    


 ITERATION SUMMARY FOR THE INCREMENT:   0 TOTAL ITERATIONS, OF WHICH
   0 ARE SEVERE DISCONTINUITY ITERATIONS AND  0 ARE EQUILIBRIUM ITERATIONS.


                              INCREMENT NUMBER   155
                              FREQUENCY =   8.9507611    


 ITERATION SUMMARY FOR THE INCREMENT:   0 TOTAL ITERATIONS, OF WHICH
   0 ARE SEVERE DISCONTINUITY ITERATIONS AND  0 ARE EQUILIBRIUM ITERATIONS.


                              INCREMENT NUMBER   156
                              FREQUENCY =   9.0088830    


 ITERATION SUMMARY FOR THE INCREMENT:   0 TOTAL ITERATIONS, OF WHICH
   0 ARE SEVERE DISCONTINUITY ITERATIONS AND  0 ARE EQUILIBRIUM ITERATIONS.


                              INCREMENT NUMBER   157
                              FREQUENCY =   9.0670048    


 ITERATION SUMMARY FOR THE INCREMENT:   0 TOTAL ITERATIONS, OF WHICH
   0 ARE SEVERE DISCONTINUITY ITERATIONS AND  0 ARE EQUILIBRIUM ITERATIONS.


                              INCREMENT NUMBER   158
                              FREQUENCY =   9.1251266    


 ITERATION SUMMARY FOR THE INCREMENT:   0 TOTAL ITERATIONS, OF WHICH
   0 ARE SEVERE DISCONTINUITY ITERATIONS AND  0 ARE EQUILIBRIUM ITERATIONS.


                              INCREMENT NUMBER   159
                              FREQUENCY =   9.1832484    


 ITERATION SUMMARY FOR THE INCREMENT:   0 TOTAL ITERATIONS, OF WHICH
   0 ARE SEVERE DISCONTINUITY ITERATIONS AND  0 ARE EQUILIBRIUM ITERATIONS.


                              INCREMENT NUMBER   160
                              FREQUENCY =   9.2413703    


 ITERATION SUMMARY FOR THE INCREMENT:   0 TOTAL ITERATIONS, OF WHICH
   0 ARE SEVERE DISCONTINUITY ITERATIONS AND  0 ARE EQUILIBRIUM ITERATIONS.


                              INCREMENT NUMBER   161
                              FREQUENCY =   9.2994921    


 ITERATION SUMMARY FOR THE INCREMENT:   0 TOTAL ITERATIONS, OF WHICH
   0 ARE SEVERE DISCONTINUITY ITERATIONS AND  0 ARE EQUILIBRIUM ITERATIONS.


                              INCREMENT NUMBER   162
                              FREQUENCY =   9.3576139    


 ITERATION SUMMARY FOR THE INCREMENT:   0 TOTAL ITERATIONS, OF WHICH
   0 ARE SEVERE DISCONTINUITY ITERATIONS AND  0 ARE EQUILIBRIUM ITERATIONS.


                              INCREMENT NUMBER   163
                              FREQUENCY =   9.4157357    


 ITERATION SUMMARY FOR THE INCREMENT:   0 TOTAL ITERATIONS, OF WHICH
   0 ARE SEVERE DISCONTINUITY ITERATIONS AND  0 ARE EQUILIBRIUM ITERATIONS.


                              INCREMENT NUMBER   164
                              FREQUENCY =   9.4738576    


 ITERATION SUMMARY FOR THE INCREMENT:   0 TOTAL ITERATIONS, OF WHICH
   0 ARE SEVERE DISCONTINUITY ITERATIONS AND  0 ARE EQUILIBRIUM ITERATIONS.


                              INCREMENT NUMBER   165
                              FREQUENCY =   9.5319794    


 ITERATION SUMMARY FOR THE INCREMENT:   0 TOTAL ITERATIONS, OF WHICH
   0 ARE SEVERE DISCONTINUITY ITERATIONS AND  0 ARE EQUILIBRIUM ITERATIONS.


                              INCREMENT NUMBER   166
                              FREQUENCY =   9.5901012    


 ITERATION SUMMARY FOR THE INCREMENT:   0 TOTAL ITERATIONS, OF WHICH
   0 ARE SEVERE DISCONTINUITY ITERATIONS AND  0 ARE EQUILIBRIUM ITERATIONS.


                              INCREMENT NUMBER   167
                              FREQUENCY =   9.6482230    


 ITERATION SUMMARY FOR THE INCREMENT:   0 TOTAL ITERATIONS, OF WHICH
   0 ARE SEVERE DISCONTINUITY ITERATIONS AND  0 ARE EQUILIBRIUM ITERATIONS.


                              INCREMENT NUMBER   168
                              FREQUENCY =   9.7063449    


 ITERATION SUMMARY FOR THE INCREMENT:   0 TOTAL ITERATIONS, OF WHICH
   0 ARE SEVERE DISCONTINUITY ITERATIONS AND  0 ARE EQUILIBRIUM ITERATIONS.


                              INCREMENT NUMBER   169
                              FREQUENCY =   9.7644667    


 ITERATION SUMMARY FOR THE INCREMENT:   0 TOTAL ITERATIONS, OF WHICH
   0 ARE SEVERE DISCONTINUITY ITERATIONS AND  0 ARE EQUILIBRIUM ITERATIONS.


                              INCREMENT NUMBER   170
                              FREQUENCY =   9.8225885    


 ITERATION SUMMARY FOR THE INCREMENT:   0 TOTAL ITERATIONS, OF WHICH
   0 ARE SEVERE DISCONTINUITY ITERATIONS AND  0 ARE EQUILIBRIUM ITERATIONS.


                              INCREMENT NUMBER   171
                              FREQUENCY =   9.8807104    


 ITERATION SUMMARY FOR THE INCREMENT:   0 TOTAL ITERATIONS, OF WHICH
   0 ARE SEVERE DISCONTINUITY ITERATIONS AND  0 ARE EQUILIBRIUM ITERATIONS.


                              INCREMENT NUMBER   172
                              FREQUENCY =   9.9388322    


 ITERATION SUMMARY FOR THE INCREMENT:   0 TOTAL ITERATIONS, OF WHICH
   0 ARE SEVERE DISCONTINUITY ITERATIONS AND  0 ARE EQUILIBRIUM ITERATIONS.


                              INCREMENT NUMBER   173
                              FREQUENCY =   9.9969540    


 ITERATION SUMMARY FOR THE INCREMENT:   0 TOTAL ITERATIONS, OF WHICH
   0 ARE SEVERE DISCONTINUITY ITERATIONS AND  0 ARE EQUILIBRIUM ITERATIONS.


                              INCREMENT NUMBER   174
                              FREQUENCY =   10.055076    


 ITERATION SUMMARY FOR THE INCREMENT:   0 TOTAL ITERATIONS, OF WHICH
   0 ARE SEVERE DISCONTINUITY ITERATIONS AND  0 ARE EQUILIBRIUM ITERATIONS.


                              INCREMENT NUMBER   175
                              FREQUENCY =   10.113198    


 ITERATION SUMMARY FOR THE INCREMENT:   0 TOTAL ITERATIONS, OF WHICH
   0 ARE SEVERE DISCONTINUITY ITERATIONS AND  0 ARE EQUILIBRIUM ITERATIONS.


                              INCREMENT NUMBER   176
                              FREQUENCY =   10.171319    


 ITERATION SUMMARY FOR THE INCREMENT:   0 TOTAL ITERATIONS, OF WHICH
   0 ARE SEVERE DISCONTINUITY ITERATIONS AND  0 ARE EQUILIBRIUM ITERATIONS.


                              INCREMENT NUMBER   177
                              FREQUENCY =   10.229441    


 ITERATION SUMMARY FOR THE INCREMENT:   0 TOTAL ITERATIONS, OF WHICH
   0 ARE SEVERE DISCONTINUITY ITERATIONS AND  0 ARE EQUILIBRIUM ITERATIONS.


                              INCREMENT NUMBER   178
                              FREQUENCY =   10.287563    


 ITERATION SUMMARY FOR THE INCREMENT:   0 TOTAL ITERATIONS, OF WHICH
   0 ARE SEVERE DISCONTINUITY ITERATIONS AND  0 ARE EQUILIBRIUM ITERATIONS.


                              INCREMENT NUMBER   179
                              FREQUENCY =   10.345685    


 ITERATION SUMMARY FOR THE INCREMENT:   0 TOTAL ITERATIONS, OF WHICH
   0 ARE SEVERE DISCONTINUITY ITERATIONS AND  0 ARE EQUILIBRIUM ITERATIONS.


                              INCREMENT NUMBER   180
                              FREQUENCY =   10.403807    


 ITERATION SUMMARY FOR THE INCREMENT:   0 TOTAL ITERATIONS, OF WHICH
   0 ARE SEVERE DISCONTINUITY ITERATIONS AND  0 ARE EQUILIBRIUM ITERATIONS.


                              INCREMENT NUMBER   181
                              FREQUENCY =   10.461929    


 ITERATION SUMMARY FOR THE INCREMENT:   0 TOTAL ITERATIONS, OF WHICH
   0 ARE SEVERE DISCONTINUITY ITERATIONS AND  0 ARE EQUILIBRIUM ITERATIONS.


                              INCREMENT NUMBER   182
                              FREQUENCY =   10.520050    


 ITERATION SUMMARY FOR THE INCREMENT:   0 TOTAL ITERATIONS, OF WHICH
   0 ARE SEVERE DISCONTINUITY ITERATIONS AND  0 ARE EQUILIBRIUM ITERATIONS.


                              INCREMENT NUMBER   183
                              FREQUENCY =   10.578172    


 ITERATION SUMMARY FOR THE INCREMENT:   0 TOTAL ITERATIONS, OF WHICH
   0 ARE SEVERE DISCONTINUITY ITERATIONS AND  0 ARE EQUILIBRIUM ITERATIONS.


                              INCREMENT NUMBER   184
                              FREQUENCY =   10.636294    


 ITERATION SUMMARY FOR THE INCREMENT:   0 TOTAL ITERATIONS, OF WHICH
   0 ARE SEVERE DISCONTINUITY ITERATIONS AND  0 ARE EQUILIBRIUM ITERATIONS.


                              INCREMENT NUMBER   185
                              FREQUENCY =   10.694416    


 ITERATION SUMMARY FOR THE INCREMENT:   0 TOTAL ITERATIONS, OF WHICH
   0 ARE SEVERE DISCONTINUITY ITERATIONS AND  0 ARE EQUILIBRIUM ITERATIONS.


                              INCREMENT NUMBER   186
                              FREQUENCY =   10.752538    


 ITERATION SUMMARY FOR THE INCREMENT:   0 TOTAL ITERATIONS, OF WHICH
   0 ARE SEVERE DISCONTINUITY ITERATIONS AND  0 ARE EQUILIBRIUM ITERATIONS.


                              INCREMENT NUMBER   187
                              FREQUENCY =   10.810660    


 ITERATION SUMMARY FOR THE INCREMENT:   0 TOTAL ITERATIONS, OF WHICH
   0 ARE SEVERE DISCONTINUITY ITERATIONS AND  0 ARE EQUILIBRIUM ITERATIONS.


                              INCREMENT NUMBER   188
                              FREQUENCY =   10.868781    


 ITERATION SUMMARY FOR THE INCREMENT:   0 TOTAL ITERATIONS, OF WHICH
   0 ARE SEVERE DISCONTINUITY ITERATIONS AND  0 ARE EQUILIBRIUM ITERATIONS.


                              INCREMENT NUMBER   189
                              FREQUENCY =   10.926903    


 ITERATION SUMMARY FOR THE INCREMENT:   0 TOTAL ITERATIONS, OF WHICH
   0 ARE SEVERE DISCONTINUITY ITERATIONS AND  0 ARE EQUILIBRIUM ITERATIONS.


                              INCREMENT NUMBER   190
                              FREQUENCY =   10.985025    


 ITERATION SUMMARY FOR THE INCREMENT:   0 TOTAL ITERATIONS, OF WHICH
   0 ARE SEVERE DISCONTINUITY ITERATIONS AND  0 ARE EQUILIBRIUM ITERATIONS.


                              INCREMENT NUMBER   191
                              FREQUENCY =   11.043147    


 ITERATION SUMMARY FOR THE INCREMENT:   0 TOTAL ITERATIONS, OF WHICH
   0 ARE SEVERE DISCONTINUITY ITERATIONS AND  0 ARE EQUILIBRIUM ITERATIONS.


                              INCREMENT NUMBER   192
                              FREQUENCY =   11.101269    


 ITERATION SUMMARY FOR THE INCREMENT:   0 TOTAL ITERATIONS, OF WHICH
   0 ARE SEVERE DISCONTINUITY ITERATIONS AND  0 ARE EQUILIBRIUM ITERATIONS.


                              INCREMENT NUMBER   193
                              FREQUENCY =   11.159391    


 ITERATION SUMMARY FOR THE INCREMENT:   0 TOTAL ITERATIONS, OF WHICH
   0 ARE SEVERE DISCONTINUITY ITERATIONS AND  0 ARE EQUILIBRIUM ITERATIONS.


                              INCREMENT NUMBER   194
                              FREQUENCY =   11.217512    


 ITERATION SUMMARY FOR THE INCREMENT:   0 TOTAL ITERATIONS, OF WHICH
   0 ARE SEVERE DISCONTINUITY ITERATIONS AND  0 ARE EQUILIBRIUM ITERATIONS.


                              INCREMENT NUMBER   195
                              FREQUENCY =   11.275634    


 ITERATION SUMMARY FOR THE INCREMENT:   0 TOTAL ITERATIONS, OF WHICH
   0 ARE SEVERE DISCONTINUITY ITERATIONS AND  0 ARE EQUILIBRIUM ITERATIONS.


                              INCREMENT NUMBER   196
                              FREQUENCY =   11.333756    


 ITERATION SUMMARY FOR THE INCREMENT:   0 TOTAL ITERATIONS, OF WHICH
   0 ARE SEVERE DISCONTINUITY ITERATIONS AND  0 ARE EQUILIBRIUM ITERATIONS.


                              INCREMENT NUMBER   197
                              FREQUENCY =   11.391878    


 ITERATION SUMMARY FOR THE INCREMENT:   0 TOTAL ITERATIONS, OF WHICH
   0 ARE SEVERE DISCONTINUITY ITERATIONS AND  0 ARE EQUILIBRIUM ITERATIONS.


                              INCREMENT NUMBER   198
                              FREQUENCY =   11.450000    


 ITERATION SUMMARY FOR THE INCREMENT:   0 TOTAL ITERATIONS, OF WHICH
   0 ARE SEVERE DISCONTINUITY ITERATIONS AND  0 ARE EQUILIBRIUM ITERATIONS.


                              INCREMENT NUMBER   199
                              FREQUENCY =   11.508121    


 ITERATION SUMMARY FOR THE INCREMENT:   0 TOTAL ITERATIONS, OF WHICH
   0 ARE SEVERE DISCONTINUITY ITERATIONS AND  0 ARE EQUILIBRIUM ITERATIONS.


                              INCREMENT NUMBER   200
                              FREQUENCY =   11.566243    


 ITERATION SUMMARY FOR THE INCREMENT:   0 TOTAL ITERATIONS, OF WHICH
   0 ARE SEVERE DISCONTINUITY ITERATIONS AND  0 ARE EQUILIBRIUM ITERATIONS.


                              INCREMENT NUMBER   201
                              FREQUENCY =   11.624365    


 ITERATION SUMMARY FOR THE INCREMENT:   0 TOTAL ITERATIONS, OF WHICH
   0 ARE SEVERE DISCONTINUITY ITERATIONS AND  0 ARE EQUILIBRIUM ITERATIONS.


                              INCREMENT NUMBER   202
                              FREQUENCY =   11.682487    


 ITERATION SUMMARY FOR THE INCREMENT:   0 TOTAL ITERATIONS, OF WHICH
   0 ARE SEVERE DISCONTINUITY ITERATIONS AND  0 ARE EQUILIBRIUM ITERATIONS.


                              INCREMENT NUMBER   203
                              FREQUENCY =   11.740609    


 ITERATION SUMMARY FOR THE INCREMENT:   0 TOTAL ITERATIONS, OF WHICH
   0 ARE SEVERE DISCONTINUITY ITERATIONS AND  0 ARE EQUILIBRIUM ITERATIONS.


                              INCREMENT NUMBER   204
                              FREQUENCY =   11.798731    


 ITERATION SUMMARY FOR THE INCREMENT:   0 TOTAL ITERATIONS, OF WHICH
   0 ARE SEVERE DISCONTINUITY ITERATIONS AND  0 ARE EQUILIBRIUM ITERATIONS.


                              INCREMENT NUMBER   205
                              FREQUENCY =   11.856852    


 ITERATION SUMMARY FOR THE INCREMENT:   0 TOTAL ITERATIONS, OF WHICH
   0 ARE SEVERE DISCONTINUITY ITERATIONS AND  0 ARE EQUILIBRIUM ITERATIONS.


                              INCREMENT NUMBER   206
                              FREQUENCY =   11.914974    


 ITERATION SUMMARY FOR THE INCREMENT:   0 TOTAL ITERATIONS, OF WHICH
   0 ARE SEVERE DISCONTINUITY ITERATIONS AND  0 ARE EQUILIBRIUM ITERATIONS.


                              INCREMENT NUMBER   207
                              FREQUENCY =   11.973096    


 ITERATION SUMMARY FOR THE INCREMENT:   0 TOTAL ITERATIONS, OF WHICH
   0 ARE SEVERE DISCONTINUITY ITERATIONS AND  0 ARE EQUILIBRIUM ITERATIONS.


                              INCREMENT NUMBER   208
                              FREQUENCY =   12.031218    


 ITERATION SUMMARY FOR THE INCREMENT:   0 TOTAL ITERATIONS, OF WHICH
   0 ARE SEVERE DISCONTINUITY ITERATIONS AND  0 ARE EQUILIBRIUM ITERATIONS.


                              INCREMENT NUMBER   209
                              FREQUENCY =   12.089340    


 ITERATION SUMMARY FOR THE INCREMENT:   0 TOTAL ITERATIONS, OF WHICH
   0 ARE SEVERE DISCONTINUITY ITERATIONS AND  0 ARE EQUILIBRIUM ITERATIONS.


                              INCREMENT NUMBER   210
                              FREQUENCY =   12.147462    


 ITERATION SUMMARY FOR THE INCREMENT:   0 TOTAL ITERATIONS, OF WHICH
   0 ARE SEVERE DISCONTINUITY ITERATIONS AND  0 ARE EQUILIBRIUM ITERATIONS.


                              INCREMENT NUMBER   211
                              FREQUENCY =   12.205583    


 ITERATION SUMMARY FOR THE INCREMENT:   0 TOTAL ITERATIONS, OF WHICH
   0 ARE SEVERE DISCONTINUITY ITERATIONS AND  0 ARE EQUILIBRIUM ITERATIONS.


                              INCREMENT NUMBER   212
                              FREQUENCY =   12.263705    


 ITERATION SUMMARY FOR THE INCREMENT:   0 TOTAL ITERATIONS, OF WHICH
   0 ARE SEVERE DISCONTINUITY ITERATIONS AND  0 ARE EQUILIBRIUM ITERATIONS.


                              INCREMENT NUMBER   213
                              FREQUENCY =   12.321827    


 ITERATION SUMMARY FOR THE INCREMENT:   0 TOTAL ITERATIONS, OF WHICH
   0 ARE SEVERE DISCONTINUITY ITERATIONS AND  0 ARE EQUILIBRIUM ITERATIONS.


                              INCREMENT NUMBER   214
                              FREQUENCY =   12.379949    


 ITERATION SUMMARY FOR THE INCREMENT:   0 TOTAL ITERATIONS, OF WHICH
   0 ARE SEVERE DISCONTINUITY ITERATIONS AND  0 ARE EQUILIBRIUM ITERATIONS.


                              INCREMENT NUMBER   215
                              FREQUENCY =   12.438071    


 ITERATION SUMMARY FOR THE INCREMENT:   0 TOTAL ITERATIONS, OF WHICH
   0 ARE SEVERE DISCONTINUITY ITERATIONS AND  0 ARE EQUILIBRIUM ITERATIONS.


                              INCREMENT NUMBER   216
                              FREQUENCY =   12.496192    


 ITERATION SUMMARY FOR THE INCREMENT:   0 TOTAL ITERATIONS, OF WHICH
   0 ARE SEVERE DISCONTINUITY ITERATIONS AND  0 ARE EQUILIBRIUM ITERATIONS.


                              INCREMENT NUMBER   217
                              FREQUENCY =   12.554314    


 ITERATION SUMMARY FOR THE INCREMENT:   0 TOTAL ITERATIONS, OF WHICH
   0 ARE SEVERE DISCONTINUITY ITERATIONS AND  0 ARE EQUILIBRIUM ITERATIONS.


                              INCREMENT NUMBER   218
                              FREQUENCY =   12.612436    


 ITERATION SUMMARY FOR THE INCREMENT:   0 TOTAL ITERATIONS, OF WHICH
   0 ARE SEVERE DISCONTINUITY ITERATIONS AND  0 ARE EQUILIBRIUM ITERATIONS.


                              INCREMENT NUMBER   219
                              FREQUENCY =   12.670558    


 ITERATION SUMMARY FOR THE INCREMENT:   0 TOTAL ITERATIONS, OF WHICH
   0 ARE SEVERE DISCONTINUITY ITERATIONS AND  0 ARE EQUILIBRIUM ITERATIONS.


                              INCREMENT NUMBER   220
                              FREQUENCY =   12.728680    


 ITERATION SUMMARY FOR THE INCREMENT:   0 TOTAL ITERATIONS, OF WHICH
   0 ARE SEVERE DISCONTINUITY ITERATIONS AND  0 ARE EQUILIBRIUM ITERATIONS.


                              INCREMENT NUMBER   221
                              FREQUENCY =   12.786802    


 ITERATION SUMMARY FOR THE INCREMENT:   0 TOTAL ITERATIONS, OF WHICH
   0 ARE SEVERE DISCONTINUITY ITERATIONS AND  0 ARE EQUILIBRIUM ITERATIONS.


                              INCREMENT NUMBER   222
                              FREQUENCY =   12.844923    


 ITERATION SUMMARY FOR THE INCREMENT:   0 TOTAL ITERATIONS, OF WHICH
   0 ARE SEVERE DISCONTINUITY ITERATIONS AND  0 ARE EQUILIBRIUM ITERATIONS.


                              INCREMENT NUMBER   223
                              FREQUENCY =   12.903045    


 ITERATION SUMMARY FOR THE INCREMENT:   0 TOTAL ITERATIONS, OF WHICH
   0 ARE SEVERE DISCONTINUITY ITERATIONS AND  0 ARE EQUILIBRIUM ITERATIONS.


                              INCREMENT NUMBER   224
                              FREQUENCY =   12.961167    


 ITERATION SUMMARY FOR THE INCREMENT:   0 TOTAL ITERATIONS, OF WHICH
   0 ARE SEVERE DISCONTINUITY ITERATIONS AND  0 ARE EQUILIBRIUM ITERATIONS.


                              INCREMENT NUMBER   225
                              FREQUENCY =   13.019289    


 ITERATION SUMMARY FOR THE INCREMENT:   0 TOTAL ITERATIONS, OF WHICH
   0 ARE SEVERE DISCONTINUITY ITERATIONS AND  0 ARE EQUILIBRIUM ITERATIONS.


                              INCREMENT NUMBER   226
                              FREQUENCY =   13.077411    


 ITERATION SUMMARY FOR THE INCREMENT:   0 TOTAL ITERATIONS, OF WHICH
   0 ARE SEVERE DISCONTINUITY ITERATIONS AND  0 ARE EQUILIBRIUM ITERATIONS.


                              INCREMENT NUMBER   227
                              FREQUENCY =   13.135533    


 ITERATION SUMMARY FOR THE INCREMENT:   0 TOTAL ITERATIONS, OF WHICH
   0 ARE SEVERE DISCONTINUITY ITERATIONS AND  0 ARE EQUILIBRIUM ITERATIONS.


                              INCREMENT NUMBER   228
                              FREQUENCY =   13.193654    


 ITERATION SUMMARY FOR THE INCREMENT:   0 TOTAL ITERATIONS, OF WHICH
   0 ARE SEVERE DISCONTINUITY ITERATIONS AND  0 ARE EQUILIBRIUM ITERATIONS.


                              INCREMENT NUMBER   229
                              FREQUENCY =   13.251776    


 ITERATION SUMMARY FOR THE INCREMENT:   0 TOTAL ITERATIONS, OF WHICH
   0 ARE SEVERE DISCONTINUITY ITERATIONS AND  0 ARE EQUILIBRIUM ITERATIONS.


                              INCREMENT NUMBER   230
                              FREQUENCY =   13.309898    


 ITERATION SUMMARY FOR THE INCREMENT:   0 TOTAL ITERATIONS, OF WHICH
   0 ARE SEVERE DISCONTINUITY ITERATIONS AND  0 ARE EQUILIBRIUM ITERATIONS.


                              INCREMENT NUMBER   231
                              FREQUENCY =   13.368020    


 ITERATION SUMMARY FOR THE INCREMENT:   0 TOTAL ITERATIONS, OF WHICH
   0 ARE SEVERE DISCONTINUITY ITERATIONS AND  0 ARE EQUILIBRIUM ITERATIONS.


                              INCREMENT NUMBER   232
                              FREQUENCY =   13.426142    


 ITERATION SUMMARY FOR THE INCREMENT:   0 TOTAL ITERATIONS, OF WHICH
   0 ARE SEVERE DISCONTINUITY ITERATIONS AND  0 ARE EQUILIBRIUM ITERATIONS.


                              INCREMENT NUMBER   233
                              FREQUENCY =   13.484264    


 ITERATION SUMMARY FOR THE INCREMENT:   0 TOTAL ITERATIONS, OF WHICH
   0 ARE SEVERE DISCONTINUITY ITERATIONS AND  0 ARE EQUILIBRIUM ITERATIONS.


                              INCREMENT NUMBER   234
                              FREQUENCY =   13.542385    


 ITERATION SUMMARY FOR THE INCREMENT:   0 TOTAL ITERATIONS, OF WHICH
   0 ARE SEVERE DISCONTINUITY ITERATIONS AND  0 ARE EQUILIBRIUM ITERATIONS.


                              INCREMENT NUMBER   235
                              FREQUENCY =   13.600507    


 ITERATION SUMMARY FOR THE INCREMENT:   0 TOTAL ITERATIONS, OF WHICH
   0 ARE SEVERE DISCONTINUITY ITERATIONS AND  0 ARE EQUILIBRIUM ITERATIONS.


                              INCREMENT NUMBER   236
                              FREQUENCY =   13.658629    


 ITERATION SUMMARY FOR THE INCREMENT:   0 TOTAL ITERATIONS, OF WHICH
   0 ARE SEVERE DISCONTINUITY ITERATIONS AND  0 ARE EQUILIBRIUM ITERATIONS.


                              INCREMENT NUMBER   237
                              FREQUENCY =   13.716751    


 ITERATION SUMMARY FOR THE INCREMENT:   0 TOTAL ITERATIONS, OF WHICH
   0 ARE SEVERE DISCONTINUITY ITERATIONS AND  0 ARE EQUILIBRIUM ITERATIONS.


                              INCREMENT NUMBER   238
                              FREQUENCY =   13.774873    


 ITERATION SUMMARY FOR THE INCREMENT:   0 TOTAL ITERATIONS, OF WHICH
   0 ARE SEVERE DISCONTINUITY ITERATIONS AND  0 ARE EQUILIBRIUM ITERATIONS.


                              INCREMENT NUMBER   239
                              FREQUENCY =   13.832994    


 ITERATION SUMMARY FOR THE INCREMENT:   0 TOTAL ITERATIONS, OF WHICH
   0 ARE SEVERE DISCONTINUITY ITERATIONS AND  0 ARE EQUILIBRIUM ITERATIONS.


                              INCREMENT NUMBER   240
                              FREQUENCY =   13.891116    


 ITERATION SUMMARY FOR THE INCREMENT:   0 TOTAL ITERATIONS, OF WHICH
   0 ARE SEVERE DISCONTINUITY ITERATIONS AND  0 ARE EQUILIBRIUM ITERATIONS.


                              INCREMENT NUMBER   241
                              FREQUENCY =   13.949238    


 ITERATION SUMMARY FOR THE INCREMENT:   0 TOTAL ITERATIONS, OF WHICH
   0 ARE SEVERE DISCONTINUITY ITERATIONS AND  0 ARE EQUILIBRIUM ITERATIONS.


                              INCREMENT NUMBER   242
                              FREQUENCY =   14.007360    


 ITERATION SUMMARY FOR THE INCREMENT:   0 TOTAL ITERATIONS, OF WHICH
   0 ARE SEVERE DISCONTINUITY ITERATIONS AND  0 ARE EQUILIBRIUM ITERATIONS.


                              INCREMENT NUMBER   243
                              FREQUENCY =   14.065482    


 ITERATION SUMMARY FOR THE INCREMENT:   0 TOTAL ITERATIONS, OF WHICH
   0 ARE SEVERE DISCONTINUITY ITERATIONS AND  0 ARE EQUILIBRIUM ITERATIONS.


                              INCREMENT NUMBER   244
                              FREQUENCY =   14.123604    


 ITERATION SUMMARY FOR THE INCREMENT:   0 TOTAL ITERATIONS, OF WHICH
   0 ARE SEVERE DISCONTINUITY ITERATIONS AND  0 ARE EQUILIBRIUM ITERATIONS.


                              INCREMENT NUMBER   245
                              FREQUENCY =   14.181725    


 ITERATION SUMMARY FOR THE INCREMENT:   0 TOTAL ITERATIONS, OF WHICH
   0 ARE SEVERE DISCONTINUITY ITERATIONS AND  0 ARE EQUILIBRIUM ITERATIONS.


                              INCREMENT NUMBER   246
                              FREQUENCY =   14.239847    


 ITERATION SUMMARY FOR THE INCREMENT:   0 TOTAL ITERATIONS, OF WHICH
   0 ARE SEVERE DISCONTINUITY ITERATIONS AND  0 ARE EQUILIBRIUM ITERATIONS.


                              INCREMENT NUMBER   247
                              FREQUENCY =   14.297969    


 ITERATION SUMMARY FOR THE INCREMENT:   0 TOTAL ITERATIONS, OF WHICH
   0 ARE SEVERE DISCONTINUITY ITERATIONS AND  0 ARE EQUILIBRIUM ITERATIONS.


                              INCREMENT NUMBER   248
                              FREQUENCY =   14.356091    


 ITERATION SUMMARY FOR THE INCREMENT:   0 TOTAL ITERATIONS, OF WHICH
   0 ARE SEVERE DISCONTINUITY ITERATIONS AND  0 ARE EQUILIBRIUM ITERATIONS.


                              INCREMENT NUMBER   249
                              FREQUENCY =   14.414213    


 ITERATION SUMMARY FOR THE INCREMENT:   0 TOTAL ITERATIONS, OF WHICH
   0 ARE SEVERE DISCONTINUITY ITERATIONS AND  0 ARE EQUILIBRIUM ITERATIONS.


                              INCREMENT NUMBER   250
[...]
   0 ARE SEVERE DISCONTINUITY ITERATIONS AND  0 ARE EQUILIBRIUM ITERATIONS.


                              INCREMENT NUMBER  2027
                              FREQUENCY =   295.07346    


 ITERATION SUMMARY FOR THE INCREMENT:   0 TOTAL ITERATIONS, OF WHICH
   0 ARE SEVERE DISCONTINUITY ITERATIONS AND  0 ARE EQUILIBRIUM ITERATIONS.


                              INCREMENT NUMBER  2028
                              FREQUENCY =   295.14285    


 ITERATION SUMMARY FOR THE INCREMENT:   0 TOTAL ITERATIONS, OF WHICH
   0 ARE SEVERE DISCONTINUITY ITERATIONS AND  0 ARE EQUILIBRIUM ITERATIONS.


                              INCREMENT NUMBER  2029
                              FREQUENCY =   295.21224    


 ITERATION SUMMARY FOR THE INCREMENT:   0 TOTAL ITERATIONS, OF WHICH
   0 ARE SEVERE DISCONTINUITY ITERATIONS AND  0 ARE EQUILIBRIUM ITERATIONS.


                              INCREMENT NUMBER  2030
                              FREQUENCY =   295.28162    


 ITERATION SUMMARY FOR THE INCREMENT:   0 TOTAL ITERATIONS, OF WHICH
   0 ARE SEVERE DISCONTINUITY ITERATIONS AND  0 ARE EQUILIBRIUM ITERATIONS.


                              INCREMENT NUMBER  2031
                              FREQUENCY =   295.35101    


 ITERATION SUMMARY FOR THE INCREMENT:   0 TOTAL ITERATIONS, OF WHICH
   0 ARE SEVERE DISCONTINUITY ITERATIONS AND  0 ARE EQUILIBRIUM ITERATIONS.


                              INCREMENT NUMBER  2032
                              FREQUENCY =   295.42040    


 ITERATION SUMMARY FOR THE INCREMENT:   0 TOTAL ITERATIONS, OF WHICH
   0 ARE SEVERE DISCONTINUITY ITERATIONS AND  0 ARE EQUILIBRIUM ITERATIONS.


                              INCREMENT NUMBER  2033
                              FREQUENCY =   295.48979    


 ITERATION SUMMARY FOR THE INCREMENT:   0 TOTAL ITERATIONS, OF WHICH
   0 ARE SEVERE DISCONTINUITY ITERATIONS AND  0 ARE EQUILIBRIUM ITERATIONS.


                              INCREMENT NUMBER  2034
                              FREQUENCY =   295.55918    


 ITERATION SUMMARY FOR THE INCREMENT:   0 TOTAL ITERATIONS, OF WHICH
   0 ARE SEVERE DISCONTINUITY ITERATIONS AND  0 ARE EQUILIBRIUM ITERATIONS.


                              INCREMENT NUMBER  2035
                              FREQUENCY =   295.62856    


 ITERATION SUMMARY FOR THE INCREMENT:   0 TOTAL ITERATIONS, OF WHICH
   0 ARE SEVERE DISCONTINUITY ITERATIONS AND  0 ARE EQUILIBRIUM ITERATIONS.


                              INCREMENT NUMBER  2036
                              FREQUENCY =   295.69795    


 ITERATION SUMMARY FOR THE INCREMENT:   0 TOTAL ITERATIONS, OF WHICH
   0 ARE SEVERE DISCONTINUITY ITERATIONS AND  0 ARE EQUILIBRIUM ITERATIONS.


                              INCREMENT NUMBER  2037
                              FREQUENCY =   295.76734    


 ITERATION SUMMARY FOR THE INCREMENT:   0 TOTAL ITERATIONS, OF WHICH
   0 ARE SEVERE DISCONTINUITY ITERATIONS AND  0 ARE EQUILIBRIUM ITERATIONS.


                              INCREMENT NUMBER  2038
                              FREQUENCY =   295.83673    


 ITERATION SUMMARY FOR THE INCREMENT:   0 TOTAL ITERATIONS, OF WHICH
   0 ARE SEVERE DISCONTINUITY ITERATIONS AND  0 ARE EQUILIBRIUM ITERATIONS.


                              INCREMENT NUMBER  2039
                              FREQUENCY =   295.90612    


 ITERATION SUMMARY FOR THE INCREMENT:   0 TOTAL ITERATIONS, OF WHICH
   0 ARE SEVERE DISCONTINUITY ITERATIONS AND  0 ARE EQUILIBRIUM ITERATIONS.


                              INCREMENT NUMBER  2040
                              FREQUENCY =   295.97550    


 ITERATION SUMMARY FOR THE INCREMENT:   0 TOTAL ITERATIONS, OF WHICH
   0 ARE SEVERE DISCONTINUITY ITERATIONS AND  0 ARE EQUILIBRIUM ITERATIONS.


                              INCREMENT NUMBER  2041
                              FREQUENCY =   296.04489    


 ITERATION SUMMARY FOR THE INCREMENT:   0 TOTAL ITERATIONS, OF WHICH
   0 ARE SEVERE DISCONTINUITY ITERATIONS AND  0 ARE EQUILIBRIUM ITERATIONS.


                              INCREMENT NUMBER  2042
                              FREQUENCY =   296.11428    


 ITERATION SUMMARY FOR THE INCREMENT:   0 TOTAL ITERATIONS, OF WHICH
   0 ARE SEVERE DISCONTINUITY ITERATIONS AND  0 ARE EQUILIBRIUM ITERATIONS.


                              INCREMENT NUMBER  2043
                              FREQUENCY =   296.18367    


 ITERATION SUMMARY FOR THE INCREMENT:   0 TOTAL ITERATIONS, OF WHICH
   0 ARE SEVERE DISCONTINUITY ITERATIONS AND  0 ARE EQUILIBRIUM ITERATIONS.


                              INCREMENT NUMBER  2044
                              FREQUENCY =   296.25305    


 ITERATION SUMMARY FOR THE INCREMENT:   0 TOTAL ITERATIONS, OF WHICH
   0 ARE SEVERE DISCONTINUITY ITERATIONS AND  0 ARE EQUILIBRIUM ITERATIONS.


                              INCREMENT NUMBER  2045
                              FREQUENCY =   296.32244    


 ITERATION SUMMARY FOR THE INCREMENT:   0 TOTAL ITERATIONS, OF WHICH
   0 ARE SEVERE DISCONTINUITY ITERATIONS AND  0 ARE EQUILIBRIUM ITERATIONS.


                              INCREMENT NUMBER  2046
                              FREQUENCY =   296.39183    


 ITERATION SUMMARY FOR THE INCREMENT:   0 TOTAL ITERATIONS, OF WHICH
   0 ARE SEVERE DISCONTINUITY ITERATIONS AND  0 ARE EQUILIBRIUM ITERATIONS.


                              INCREMENT NUMBER  2047
                              FREQUENCY =   296.46122    


 ITERATION SUMMARY FOR THE INCREMENT:   0 TOTAL ITERATIONS, OF WHICH
   0 ARE SEVERE DISCONTINUITY ITERATIONS AND  0 ARE EQUILIBRIUM ITERATIONS.


                              INCREMENT NUMBER  2048
                              FREQUENCY =   296.53061    


 ITERATION SUMMARY FOR THE INCREMENT:   0 TOTAL ITERATIONS, OF WHICH
   0 ARE SEVERE DISCONTINUITY ITERATIONS AND  0 ARE EQUILIBRIUM ITERATIONS.


                              INCREMENT NUMBER  2049
                              FREQUENCY =   296.59999    


 ITERATION SUMMARY FOR THE INCREMENT:   0 TOTAL ITERATIONS, OF WHICH
   0 ARE SEVERE DISCONTINUITY ITERATIONS AND  0 ARE EQUILIBRIUM ITERATIONS.


                              INCREMENT NUMBER  2050
                              FREQUENCY =   296.66938    


 ITERATION SUMMARY FOR THE INCREMENT:   0 TOTAL ITERATIONS, OF WHICH
   0 ARE SEVERE DISCONTINUITY ITERATIONS AND  0 ARE EQUILIBRIUM ITERATIONS.


                              INCREMENT NUMBER  2051
                              FREQUENCY =   296.73877    


 ITERATION SUMMARY FOR THE INCREMENT:   0 TOTAL ITERATIONS, OF WHICH
   0 ARE SEVERE DISCONTINUITY ITERATIONS AND  0 ARE EQUILIBRIUM ITERATIONS.


                              INCREMENT NUMBER  2052
                              FREQUENCY =   296.80816    


 ITERATION SUMMARY FOR THE INCREMENT:   0 TOTAL ITERATIONS, OF WHICH
   0 ARE SEVERE DISCONTINUITY ITERATIONS AND  0 ARE EQUILIBRIUM ITERATIONS.


                              INCREMENT NUMBER  2053
                              FREQUENCY =   296.87755    


 ITERATION SUMMARY FOR THE INCREMENT:   0 TOTAL ITERATIONS, OF WHICH
   0 ARE SEVERE DISCONTINUITY ITERATIONS AND  0 ARE EQUILIBRIUM ITERATIONS.


                              INCREMENT NUMBER  2054
                              FREQUENCY =   296.94693    


 ITERATION SUMMARY FOR THE INCREMENT:   0 TOTAL ITERATIONS, OF WHICH
   0 ARE SEVERE DISCONTINUITY ITERATIONS AND  0 ARE EQUILIBRIUM ITERATIONS.


                              INCREMENT NUMBER  2055
                              FREQUENCY =   297.01632    


 ITERATION SUMMARY FOR THE INCREMENT:   0 TOTAL ITERATIONS, OF WHICH
   0 ARE SEVERE DISCONTINUITY ITERATIONS AND  0 ARE EQUILIBRIUM ITERATIONS.


                              INCREMENT NUMBER  2056
                              FREQUENCY =   297.08571    


 ITERATION SUMMARY FOR THE INCREMENT:   0 TOTAL ITERATIONS, OF WHICH
   0 ARE SEVERE DISCONTINUITY ITERATIONS AND  0 ARE EQUILIBRIUM ITERATIONS.


                              INCREMENT NUMBER  2057
                              FREQUENCY =   297.15510    


 ITERATION SUMMARY FOR THE INCREMENT:   0 TOTAL ITERATIONS, OF WHICH
   0 ARE SEVERE DISCONTINUITY ITERATIONS AND  0 ARE EQUILIBRIUM ITERATIONS.


                              INCREMENT NUMBER  2058
                              FREQUENCY =   297.22448    


 ITERATION SUMMARY FOR THE INCREMENT:   0 TOTAL ITERATIONS, OF WHICH
   0 ARE SEVERE DISCONTINUITY ITERATIONS AND  0 ARE EQUILIBRIUM ITERATIONS.


                              INCREMENT NUMBER  2059
                              FREQUENCY =   297.29387    


 ITERATION SUMMARY FOR THE INCREMENT:   0 TOTAL ITERATIONS, OF WHICH
   0 ARE SEVERE DISCONTINUITY ITERATIONS AND  0 ARE EQUILIBRIUM ITERATIONS.


                              INCREMENT NUMBER  2060
                              FREQUENCY =   297.36326    


 ITERATION SUMMARY FOR THE INCREMENT:   0 TOTAL ITERATIONS, OF WHICH
   0 ARE SEVERE DISCONTINUITY ITERATIONS AND  0 ARE EQUILIBRIUM ITERATIONS.


                              INCREMENT NUMBER  2061
                              FREQUENCY =   297.43265    


 ITERATION SUMMARY FOR THE INCREMENT:   0 TOTAL ITERATIONS, OF WHICH
   0 ARE SEVERE DISCONTINUITY ITERATIONS AND  0 ARE EQUILIBRIUM ITERATIONS.


                              INCREMENT NUMBER  2062
                              FREQUENCY =   297.50204    


 ITERATION SUMMARY FOR THE INCREMENT:   0 TOTAL ITERATIONS, OF WHICH
   0 ARE SEVERE DISCONTINUITY ITERATIONS AND  0 ARE EQUILIBRIUM ITERATIONS.


                              INCREMENT NUMBER  2063
                              FREQUENCY =   297.57142    


 ITERATION SUMMARY FOR THE INCREMENT:   0 TOTAL ITERATIONS, OF WHICH
   0 ARE SEVERE DISCONTINUITY ITERATIONS AND  0 ARE EQUILIBRIUM ITERATIONS.


                              INCREMENT NUMBER  2064
                              FREQUENCY =   297.64081    


 ITERATION SUMMARY FOR THE INCREMENT:   0 TOTAL ITERATIONS, OF WHICH
   0 ARE SEVERE DISCONTINUITY ITERATIONS AND  0 ARE EQUILIBRIUM ITERATIONS.


                              INCREMENT NUMBER  2065
                              FREQUENCY =   297.71020    


 ITERATION SUMMARY FOR THE INCREMENT:   0 TOTAL ITERATIONS, OF WHICH
   0 ARE SEVERE DISCONTINUITY ITERATIONS AND  0 ARE EQUILIBRIUM ITERATIONS.


                              INCREMENT NUMBER  2066
                              FREQUENCY =   297.77959    


 ITERATION SUMMARY FOR THE INCREMENT:   0 TOTAL ITERATIONS, OF WHICH
   0 ARE SEVERE DISCONTINUITY ITERATIONS AND  0 ARE EQUILIBRIUM ITERATIONS.


                              INCREMENT NUMBER  2067
                              FREQUENCY =   297.84898    


 ITERATION SUMMARY FOR THE INCREMENT:   0 TOTAL ITERATIONS, OF WHICH
   0 ARE SEVERE DISCONTINUITY ITERATIONS AND  0 ARE EQUILIBRIUM ITERATIONS.


                              INCREMENT NUMBER  2068
                              FREQUENCY =   297.91836    


 ITERATION SUMMARY FOR THE INCREMENT:   0 TOTAL ITERATIONS, OF WHICH
   0 ARE SEVERE DISCONTINUITY ITERATIONS AND  0 ARE EQUILIBRIUM ITERATIONS.


                              INCREMENT NUMBER  2069
                              FREQUENCY =   297.98775    


 ITERATION SUMMARY FOR THE INCREMENT:   0 TOTAL ITERATIONS, OF WHICH
   0 ARE SEVERE DISCONTINUITY ITERATIONS AND  0 ARE EQUILIBRIUM ITERATIONS.


                              INCREMENT NUMBER  2070
                              FREQUENCY =   298.05714    


 ITERATION SUMMARY FOR THE INCREMENT:   0 TOTAL ITERATIONS, OF WHICH
   0 ARE SEVERE DISCONTINUITY ITERATIONS AND  0 ARE EQUILIBRIUM ITERATIONS.


                              INCREMENT NUMBER  2071
                              FREQUENCY =   298.12653    


 ITERATION SUMMARY FOR THE INCREMENT:   0 TOTAL ITERATIONS, OF WHICH
   0 ARE SEVERE DISCONTINUITY ITERATIONS AND  0 ARE EQUILIBRIUM ITERATIONS.


                              INCREMENT NUMBER  2072
                              FREQUENCY =   298.19592    


 ITERATION SUMMARY FOR THE INCREMENT:   0 TOTAL ITERATIONS, OF WHICH
   0 ARE SEVERE DISCONTINUITY ITERATIONS AND  0 ARE EQUILIBRIUM ITERATIONS.


                              INCREMENT NUMBER  2073
                              FREQUENCY =   298.26530    


 ITERATION SUMMARY FOR THE INCREMENT:   0 TOTAL ITERATIONS, OF WHICH
   0 ARE SEVERE DISCONTINUITY ITERATIONS AND  0 ARE EQUILIBRIUM ITERATIONS.


                              INCREMENT NUMBER  2074
                              FREQUENCY =   298.33469    


 ITERATION SUMMARY FOR THE INCREMENT:   0 TOTAL ITERATIONS, OF WHICH
   0 ARE SEVERE DISCONTINUITY ITERATIONS AND  0 ARE EQUILIBRIUM ITERATIONS.


                              INCREMENT NUMBER  2075
                              FREQUENCY =   298.40408    


 ITERATION SUMMARY FOR THE INCREMENT:   0 TOTAL ITERATIONS, OF WHICH
   0 ARE SEVERE DISCONTINUITY ITERATIONS AND  0 ARE EQUILIBRIUM ITERATIONS.


                              INCREMENT NUMBER  2076
                              FREQUENCY =   298.47347    


 ITERATION SUMMARY FOR THE INCREMENT:   0 TOTAL ITERATIONS, OF WHICH
   0 ARE SEVERE DISCONTINUITY ITERATIONS AND  0 ARE EQUILIBRIUM ITERATIONS.


                              INCREMENT NUMBER  2077
                              FREQUENCY =   298.54285    


 ITERATION SUMMARY FOR THE INCREMENT:   0 TOTAL ITERATIONS, OF WHICH
   0 ARE SEVERE DISCONTINUITY ITERATIONS AND  0 ARE EQUILIBRIUM ITERATIONS.


                              INCREMENT NUMBER  2078
                              FREQUENCY =   298.61224    


 ITERATION SUMMARY FOR THE INCREMENT:   0 TOTAL ITERATIONS, OF WHICH
   0 ARE SEVERE DISCONTINUITY ITERATIONS AND  0 ARE EQUILIBRIUM ITERATIONS.


                              INCREMENT NUMBER  2079
                              FREQUENCY =   298.68163    


 ITERATION SUMMARY FOR THE INCREMENT:   0 TOTAL ITERATIONS, OF WHICH
   0 ARE SEVERE DISCONTINUITY ITERATIONS AND  0 ARE EQUILIBRIUM ITERATIONS.


                              INCREMENT NUMBER  2080
                              FREQUENCY =   298.75102    


 ITERATION SUMMARY FOR THE INCREMENT:   0 TOTAL ITERATIONS, OF WHICH
   0 ARE SEVERE DISCONTINUITY ITERATIONS AND  0 ARE EQUILIBRIUM ITERATIONS.


                              INCREMENT NUMBER  2081
                              FREQUENCY =   298.82041    


 ITERATION SUMMARY FOR THE INCREMENT:   0 TOTAL ITERATIONS, OF WHICH
   0 ARE SEVERE DISCONTINUITY ITERATIONS AND  0 ARE EQUILIBRIUM ITERATIONS.


                              INCREMENT NUMBER  2082
                              FREQUENCY =   298.88979    


 ITERATION SUMMARY FOR THE INCREMENT:   0 TOTAL ITERATIONS, OF WHICH
   0 ARE SEVERE DISCONTINUITY ITERATIONS AND  0 ARE EQUILIBRIUM ITERATIONS.


                              INCREMENT NUMBER  2083
                              FREQUENCY =   298.95918    


 ITERATION SUMMARY FOR THE INCREMENT:   0 TOTAL ITERATIONS, OF WHICH
   0 ARE SEVERE DISCONTINUITY ITERATIONS AND  0 ARE EQUILIBRIUM ITERATIONS.


                              INCREMENT NUMBER  2084
                              FREQUENCY =   299.02857    


 ITERATION SUMMARY FOR THE INCREMENT:   0 TOTAL ITERATIONS, OF WHICH
   0 ARE SEVERE DISCONTINUITY ITERATIONS AND  0 ARE EQUILIBRIUM ITERATIONS.


                              INCREMENT NUMBER  2085
                              FREQUENCY =   299.09796    


 ITERATION SUMMARY FOR THE INCREMENT:   0 TOTAL ITERATIONS, OF WHICH
   0 ARE SEVERE DISCONTINUITY ITERATIONS AND  0 ARE EQUILIBRIUM ITERATIONS.


                              INCREMENT NUMBER  2086
                              FREQUENCY =   299.16735    


 ITERATION SUMMARY FOR THE INCREMENT:   0 TOTAL ITERATIONS, OF WHICH
   0 ARE SEVERE DISCONTINUITY ITERATIONS AND  0 ARE EQUILIBRIUM ITERATIONS.


                              INCREMENT NUMBER  2087
                              FREQUENCY =   299.23673    


 ITERATION SUMMARY FOR THE INCREMENT:   0 TOTAL ITERATIONS, OF WHICH
   0 ARE SEVERE DISCONTINUITY ITERATIONS AND  0 ARE EQUILIBRIUM ITERATIONS.


                              INCREMENT NUMBER  2088
                              FREQUENCY =   299.30612    


 ITERATION SUMMARY FOR THE INCREMENT:   0 TOTAL ITERATIONS, OF WHICH
   0 ARE SEVERE DISCONTINUITY ITERATIONS AND  0 ARE EQUILIBRIUM ITERATIONS.


                              INCREMENT NUMBER  2089
                              FREQUENCY =   299.37551    


 ITERATION SUMMARY FOR THE INCREMENT:   0 TOTAL ITERATIONS, OF WHICH
   0 ARE SEVERE DISCONTINUITY ITERATIONS AND  0 ARE EQUILIBRIUM ITERATIONS.


                              INCREMENT NUMBER  2090
                              FREQUENCY =   299.44490    


 ITERATION SUMMARY FOR THE INCREMENT:   0 TOTAL ITERATIONS, OF WHICH
   0 ARE SEVERE DISCONTINUITY ITERATIONS AND  0 ARE EQUILIBRIUM ITERATIONS.


                              INCREMENT NUMBER  2091
                              FREQUENCY =   299.51428    


 ITERATION SUMMARY FOR THE INCREMENT:   0 TOTAL ITERATIONS, OF WHICH
   0 ARE SEVERE DISCONTINUITY ITERATIONS AND  0 ARE EQUILIBRIUM ITERATIONS.


                              INCREMENT NUMBER  2092
                              FREQUENCY =   299.58367    


 ITERATION SUMMARY FOR THE INCREMENT:   0 TOTAL ITERATIONS, OF WHICH
   0 ARE SEVERE DISCONTINUITY ITERATIONS AND  0 ARE EQUILIBRIUM ITERATIONS.


                              INCREMENT NUMBER  2093
                              FREQUENCY =   299.65306    


 ITERATION SUMMARY FOR THE INCREMENT:   0 TOTAL ITERATIONS, OF WHICH
   0 ARE SEVERE DISCONTINUITY ITERATIONS AND  0 ARE EQUILIBRIUM ITERATIONS.


                              INCREMENT NUMBER  2094
                              FREQUENCY =   299.72245    


 ITERATION SUMMARY FOR THE INCREMENT:   0 TOTAL ITERATIONS, OF WHICH
   0 ARE SEVERE DISCONTINUITY ITERATIONS AND  0 ARE EQUILIBRIUM ITERATIONS.


                              INCREMENT NUMBER  2095
                              FREQUENCY =   299.79184    


 ITERATION SUMMARY FOR THE INCREMENT:   0 TOTAL ITERATIONS, OF WHICH
   0 ARE SEVERE DISCONTINUITY ITERATIONS AND  0 ARE EQUILIBRIUM ITERATIONS.


                              INCREMENT NUMBER  2096
                              FREQUENCY =   299.86122    


 ITERATION SUMMARY FOR THE INCREMENT:   0 TOTAL ITERATIONS, OF WHICH
   0 ARE SEVERE DISCONTINUITY ITERATIONS AND  0 ARE EQUILIBRIUM ITERATIONS.


                              INCREMENT NUMBER  2097
                              FREQUENCY =   299.93061    


 ITERATION SUMMARY FOR THE INCREMENT:   0 TOTAL ITERATIONS, OF WHICH
   0 ARE SEVERE DISCONTINUITY ITERATIONS AND  0 ARE EQUILIBRIUM ITERATIONS.


                              INCREMENT NUMBER  2098
                              FREQUENCY =   300.00000    


 ITERATION SUMMARY FOR THE INCREMENT:   0 TOTAL ITERATIONS, OF WHICH
   0 ARE SEVERE DISCONTINUITY ITERATIONS AND  0 ARE EQUILIBRIUM ITERATIONS.


          THE ANALYSIS HAS BEEN COMPLETED



     ANALYSIS SUMMARY:
     TOTAL OF       2100  INCREMENTS
                       0  CUTBACKS IN AUTOMATIC INCREMENTATION
                       1  ITERATIONS INCLUDING CONTACT ITERATIONS IF PRESENT
                       9  PASSES THROUGH THE EQUATION SOLVER OF WHICH 
                       3  INVOLVE MATRIX DECOMPOSITION, INCLUDING
                       0  DECOMPOSITION(S) OF THE MASS MATRIX
                       1  REORDERING OF EQUATIONS TO MINIMIZE WAVEFRONT
                       0  ADDITIONAL RESIDUAL EVALUATIONS FOR LINE SEARCHES
                       0  ADDITIONAL OPERATOR EVALUATIONS FOR LINE SEARCHES
                       1  WARNING MESSAGES DURING USER INPUT PROCESSING
                       0  WARNING MESSAGES DURING ANALYSIS
                       0  ANALYSIS WARNINGS ARE NUMERICAL PROBLEM MESSAGES
                       0  ANALYSIS WARNINGS ARE NEGATIVE EIGENVALUE MESSAGES
                       0  ERROR MESSAGES



     JOB TIME SUMMARY
       USER TIME (SEC)      =   16.000    
       SYSTEM TIME (SEC)    =   11.200    
       TOTAL CPU TIME (SEC) =   27.200    
       WALLCLOCK TIME (SEC) =         27
