1

   Abaqus 6.13-1                                  Date 05-Feb-2016   Time 17:47:38
   For use at  under license from Dassault Systemes or its subsidiary.



                         The Abaqus Software is a product of:

                           Dassault Systemes Simulia Corp.
                                 Rising Sun Mills
                                 166 Valley Street
                           Providence, RI 02909-2499, USA
 


                   Available for internal use at . 
                   The Abaqus Online Support System is accessible
                   through the "My Support" section of the SIMULIA
                   Home Page at http://www.simulia.com.

                   Support policies for academic licenses are described
                   on the SIMULIA web site at
                   http://www.3ds.com/products/simulia/academics/
 
                          On machine luigi 
                          you are authorized to run
                          Abaqus/Foundation until 30-Aug-2016

                          Your site id is: 200000000026328 


 
                    For assistance or any other information you may
                    obtain contact information for your local office
                    from the world wide web at:

                      http://www.3ds.com/products/simulia/locations/

 
                * * * * * * * * * * * * * * * * * * * * * * * * * * * * * * 
                *                                                         * 
                *                   *****************                     * 
                *                   *  N O T I C E  *                     * 
                *                   *****************                     * 
                *                                                         * 
                *                                                         * 
                *                    Abaqus 6.13-1                        * 
                *                                                         * 
                *          BUILD ID: 2013_05_15-22.28.56 126354           * 
                *                                                         * 
                *                                                         * 
                *  Please make sure you are using release 6.13 manuals    * 
                *  plus the notes accompanying this release.              * 
                *                                                         * 
                *                                                         * 
                *                                                         * 
                *                                                         * 
                *                                                         * 
                *   This program may not be used for commercial purposes  * 
                *           without payment of a commercial fee.          * 
                *                                                         * 
                * * * * * * * * * * * * * * * * * * * * * * * * * * * * * * 


 



     PROCESSING PART, INSTANCE, AND ASSEMBLY INFORMATION
   *******************************************************


     END PROCESSING PART, INSTANCE, AND ASSEMBLY INFORMATION
   ***********************************************************




     OPTIONS BEING PROCESSED
   ***************************


  *HEADING
          FIVE SPAN CONTINUOUS BEAM UNDER JET NOISE                                                                                                                                                                                                                       
  *NODE
  *NGEN
  *ELEMENT,TYPE=B23
  *ELGEN,ELSET=ALL
  *NSET,NSET=SUPP,GENERATE
  *NSET,NSET=ALL,GENERATE
  *NSET,NSET=N2
  *BEAM GENERAL SECTION,SECTION=GENERAL,DENSITY=0.0001,ELSET=ALL
  *BOUNDARY
  *BEAM GENERAL SECTION,SECTION=GENERAL,DENSITY=0.0001,ELSET=ALL
  *OUTPUT,FIELD
  *OUTPUT,HISTORY
  *OUTPUT, FIELD, VARIABLE=PRESELECT
  *OUTPUT,FIELD
  *OUTPUT,HISTORY
  *OUTPUT,FIELD,Frequency=1
  *OUTPUT,HISTORY,Frequency=1
  *OUTPUT,FIELD
  *OUTPUT,HISTORY
  *OUTPUT, FIELD, VARIABLE=PRESELECT
  *OUTPUT,FIELD
  *OUTPUT,HISTORY
  *OUTPUT,FIELD,Frequency=1
  *OUTPUT,HISTORY,Frequency=1
  *OUTPUT,FIELD
  *OUTPUT,HISTORY
  *OUTPUT, FIELD, VARIABLE=PRESELECT
  *OUTPUT,FIELD
  *OUTPUT,HISTORY
  *OUTPUT,FIELD,Frequency=1
  *OUTPUT,HISTORY,Frequency=1
  *PSD-DEFINITION,NAME=PSD
  *STEP
  *FREQUENCY, eigensolver=lanczos
  *STEP
  *STEP
  *STEP
  *STEP
  *FREQUENCY, eigensolver=lanczos
  *FREQUENCY, eigensolver=lanczos
  *EL PRINT,FREQUENCY=0
  *NODE PRINT,FREQUENCY=0
  *MODAL FILE
  *OUTPUT,FIELD
  *OUTPUT,HISTORY
  *MODAL OUTPUT,VARIABLE=ALL
  *OUTPUT, FIELD, VARIABLE=PRESELECT
  *END STEP

 ***ERROR: STEP DEFINITION CARDS BETWEEN *END STEP AND *STEP ARE IGNORED. IF 
           MODEL DEFINITION KEYWORDS ARE DEFINED AFTER THE *END STEP KEYWORD 
           THEN THEY SHOULD BE MOVED TO THE MODEL DEFINITION PORTION OF THE 
           INPUT FILE. IF THIS IS A RESTART ANALYSIS CHECK FOR ANY UNSUPPORTED 
           MODEL DEFINITION KEYWORDS.
 LINE IMAGE: *PSD-DEFINITION,NAME=PSD
 ***NOTE: DUE TO AN INPUT ERROR THE ANALYSIS PRE-PROCESSOR HAS BEEN UNABLE TO 
          INTERPRET SOME DATA.  SUBSEQUENT ERRORS MAY BE CAUSED BY THIS OMISSION
  *STEP
  *modal damping, modal=direct
  *select eigenmodes, generate
  *EL PRINT,FREQUENCY=80
  *NODE PRINT,NSET=N2,SUMMARY=NO,FREQUENCY=4
  *NODE PRINT,FREQUENCY=80
  *MODAL PRINT,FREQUENCY=20
  *MODAL FILE
  *NODE FILE,FREQUENCY=1,NSET=N2
  *OUTPUT,FIELD

 ***WARNING: *MODAL OUTPUT IS NOT AVAILABLE AS FIELD OUTPUT
  *OUTPUT,HISTORY
  *MODAL OUTPUT,VARIABLE=ALL

 ***WARNING: DATACARDS ARE IGNORED IF VARIABLE=ALL HAS BEEN USED
 LINE IMAGE: GU,
  *OUTPUT,FIELD,Frequency=1
  *NODE OUTPUT,NSET=N2
  *OUTPUT,HISTORY,Frequency=1
  *NODE OUTPUT,NSET=N2
  *END STEP

 ***WARNING: RESTART IS NOT AVAILABLE FOR THE RANDOM RESPONSE PROCEDURE, BUT IT 
             WILL BE RESTORED IN SUBSEQUENT STEPS.
  *BOUNDARY
  *STEP
  *FREQUENCY, eigensolver=lanczos
  *FREQUENCY, eigensolver=lanczos
  *END STEP
  *STEP
  *RANDOM RESPONSE
  *modal damping, modal=direct
  *select eigenmodes, generate
  *CLOAD, LOAD CASE=1
  *CORRELATION,TYPE=MOVING NOISE
  *END STEP

 ***WARNING: A STEADY STATE, SUBSPACE PROJECTION BASED, OR MODE-BASED DYNAMIC 
             ANALYSIS IS REQUESTED FOR A MODEL WITH NON-DIAGONAL MASS MATRIX. 
             Abaqus/Standard SUBSPACE PROJECTION BASED OR MODE-BASED DYNAMIC 
             ANALYSIS FOR A MODEL WITH NON-DIAGONAL MASS MATRIX (E.G. USING 
             SUBSTRUCTURES) MIGHT GIVE INCORRECT REACTION FORCES. HOWEVER, 
             OTHER OUTPUT QUANTITIES WILL BE CORRECT. THE WORKAROUND FOR THE 
             STEADY STATE DYNAMIC ANALYSIS IS TO USE THE DIRECT SOLUTION 
             PROCEDURE.



                            P R O B L E M   S I Z E


          NUMBER OF ELEMENTS IS                                    20
          NUMBER OF NODES IS                                       41
          NUMBER OF NODES DEFINED BY THE USER                      21
          NUMBER OF INTERNAL NODES GENERATED BY THE PROGRAM        20
          TOTAL NUMBER OF VARIABLES IN THE MODEL                  103
          (DEGREES OF FREEDOM PLUS MAX NO. OF ANY LAGRANGE MULTIPLIER
           VARIABLES. INCLUDE *PRINT,SOLVE=YES TO GET THE ACTUAL NUMBER.)





          THE PROGRAM HAS DISCOVERED     1 FATAL ERRORS

               ** EXECUTION IS TERMINATED **



                              END OF USER INPUT PROCESSING



     JOB TIME SUMMARY
       USER TIME (SEC)      =  0.10000    
       SYSTEM TIME (SEC)    =  0.10000    
       TOTAL CPU TIME (SEC) =  0.20000    
       WALLCLOCK TIME (SEC) =          1
